29

H 	-2.122905390	-0.330561200	-0.828370880
C 	-0.168143860	0.084168340	-0.058991460
C 	-1.489538450	-0.283943050	0.050026820
C 	-2.127990270	-0.571630930	1.303526810
O 	-3.377924250	-0.800424250	1.395761960
H 	0.458827240	0.056456480	0.830244970
H 	-0.893946230	2.733641180	-0.479218700
H 	0.706084820	2.734711710	0.482295560
H 	-0.921963750	2.485062150	1.366223170
C 	-0.358600920	2.535169960	0.441293010
C 	-1.356807830	-0.613205900	2.603489480
H 	-0.944354380	0.378352420	2.834494290
H 	-0.515451570	-1.313678600	2.542211900
H 	-2.027398810	-0.915922480	3.410198190
C 	1.962659390	0.472022710	-1.258438350
C 	2.708963810	0.649631380	-2.423637130
C 	2.081327930	0.635790500	-3.674709800
C 	0.699894920	0.436399400	-3.718038290
C 	-0.069648680	0.255637310	-2.577002880
C 	0.565846300	0.272737420	-1.315097340
H 	2.458257590	0.488051360	-0.289667830
H 	3.784100980	0.802650260	-2.363018660
H 	2.637872120	0.774978820	-4.597561220
F 	0.080920940	0.419454530	-4.939529370
H 	-1.140445790	0.106547570	-2.678722120
B 	-4.476970690	-0.723388150	0.142727910
F 	-4.361154770	0.573009960	-0.354269660
F 	-5.666408320	-0.990110090	0.768014630
F 	-4.063898730	-1.692518130	-0.766049770
