29

H 	-2.101423119	-0.351176815	-0.821048986
C 	-0.157625740	0.087611240	-0.043718189
C 	-1.474821940	-0.289714167	0.060863495
C 	-2.116800728	-0.579093939	1.310455454
O 	-3.363266452	-0.824294370	1.393736422
H 	0.466744938	0.071874378	0.847023662
H 	-0.904745952	2.726806199	-0.539617093
H 	0.663087045	2.758009074	0.472751997
H 	-0.992220579	2.516100437	1.308108538
C 	-0.398853399	2.553286084	0.401981793
C 	-1.354387402	-0.601314200	2.614125740
H 	-0.950083715	0.395229302	2.835287324
H 	-0.508676330	-1.296941940	2.565603376
H 	-2.028293886	-0.899549561	3.419297262
C 	1.974955593	0.419331431	-1.255569447
C 	2.713903286	0.587232154	-2.426873406
C 	2.070706126	0.627481767	-3.668131838
C 	0.682111854	0.490120541	-3.695566524
C 	-0.079801376	0.314573190	-2.550588500
C 	0.571669364	0.276932219	-1.299356476
H 	2.481744853	0.393460242	-0.293399048
H 	3.794992478	0.690675999	-2.378616816
H 	2.618645562	0.762273989	-4.596362674
F 	0.047927322	0.529233359	-4.904804861
H 	-1.157254905	0.216479424	-2.641709455
B 	-4.447169643	-0.745192504	0.129797218
F 	-4.329309950	0.555106139	-0.351578729
F 	-5.640957175	-1.022842999	0.736870709
F 	-4.019592782	-1.702605994	-0.780775709
