37

H 	1.663942960	2.129033140	-0.611845410
C 	3.463875550	1.028135020	-0.453422890
C 	2.105587040	1.162294660	-0.398726620
C 	1.136457550	0.198445540	0.114400220
O 	0.055676600	0.593907670	0.680772840
H 	3.925225360	0.055762340	-0.304505310
H 	3.684381470	2.106633470	2.121651940
H 	5.038277930	0.827655970	1.948861600
H 	3.274079600	0.303627270	2.228855080
C 	3.983766500	1.078671280	1.961942220
N 	1.335690440	-1.146755080	0.061653760
C 	2.263286130	-1.815455890	-0.862716580
C 	0.386836420	-2.036017840	0.756904810
H 	2.592965310	-1.123408550	-1.637464990
H 	1.734633210	-2.649509170	-1.339178250
H 	3.137278990	-2.217112710	-0.332813630
H 	0.921589600	-2.943638820	1.055292820
H 	-0.446902860	-2.309007810	0.095690030
H 	-0.016836560	-1.530701020	1.634116200
C 	5.820425820	1.956104720	-0.586144070
C 	4.370163100	2.064794030	-1.113133070
C 	3.857735700	3.509786520	-0.922189710
C 	4.374455160	1.712587700	-2.633569280
H 	3.364604340	1.787494870	-3.051871360
H 	6.488905400	2.562973110	-1.208179910
H 	6.179416030	0.918995810	-0.618603240
H 	5.900376040	2.317012220	0.443698190
H 	4.575300210	4.214992740	-1.358034050
H 	3.740695400	3.749517450	0.140343340
H 	2.893865010	3.673993450	-1.415828220
H 	5.030666470	2.406437620	-3.173673090
H 	4.746213780	0.693806400	-2.803990460
Sn	-0.922287630	2.608815130	1.043314550
Cl	-2.583146820	1.193196350	1.980790420
Cl	-0.809362800	2.889935130	-1.334699970
Cl	-2.052937740	4.688489440	1.472142060
Cl	1.026806650	3.144371510	2.323086120
