37

H 	1.653585141	2.121626578	-0.653761979
C 	3.458512378	1.033025491	-0.437530640
C 	2.098971920	1.162397348	-0.416869711
C 	1.136661415	0.195100561	0.101884047
O 	0.068646674	0.584157223	0.691692907
H 	3.912879338	0.061322698	-0.264105081
H 	3.929511672	2.245127570	2.057153095
H 	4.895699407	0.649848815	1.982087638
H 	3.059361981	0.631675275	2.300828153
C 	3.942123522	1.166079922	1.972123402
N 	1.338366118	-1.147802656	0.027834587
C 	2.243830924	-1.799360945	-0.928191024
C 	0.413183224	-2.051198265	0.733192329
H 	2.573959533	-1.087837822	-1.684054400
H 	1.698450102	-2.611398767	-1.423357054
H 	3.118097213	-2.228867194	-0.421850229
H 	0.970457890	-2.939153182	1.049038932
H 	-0.408548645	-2.359117104	0.072526736
H 	-0.008938731	-1.542949302	1.599439031
C 	5.820807786	1.940677979	-0.556787655
C 	4.378631893	2.054266287	-1.101985222
C 	3.871302238	3.503024003	-0.936630381
C 	4.398303107	1.684673206	-2.617330629
H 	3.395564944	1.766177406	-3.050032668
H 	6.499035707	2.550549685	-1.164568398
H 	6.177886890	0.903434628	-0.592632016
H 	5.888707810	2.291430207	0.476890955
H 	4.587764765	4.199096328	-1.387516442
H 	3.756136878	3.764282973	0.120603894
H 	2.906506218	3.659151258	-1.430260320
H 	5.068744102	2.364740865	-3.156665284
H 	4.760391125	0.660340293	-2.771639747
Sn	-0.923006956	2.588789432	1.085832151
Cl	-2.503004693	1.161366816	2.132774887
Cl	-0.917543301	2.809447678	-1.299038147
Cl	-2.076955718	4.656292952	1.504091008
Cl	1.057621488	3.165445430	2.289739368
