12
TSRC=3_2 radical R1=5_12 R2=2_8 plane=5_1_2 align=1_2 center=2
C       0.81923298      -0.20832921       0.88020430
C       0.85454985      -0.33748203      -0.46976816
C      -1.55040422      -0.45230028      -1.30891718
H       0.84546728      -1.09271191       1.51824543
C       0.72283957       1.09104985       1.56732892
H      -1.73785168      -1.50347048      -1.12277542
H       1.04556906       0.46534701      -1.10763125
Xx       1.53703453      -1.05782382      -0.89377192
H      -1.33825172      -0.13368742      -2.32319469
H      -1.93097149       0.27802551      -0.60605693
O       0.78605811       1.01223254       2.78313781
Xx       0.61369903       1.97187269       1.12876369

