23

H 	1.921034455	0.925688970	0.018634309
C 	0.000000000	0.000000000	0.000000000
C 	1.346361845	-0.000000000	0.000000000
C 	2.195168773	-1.179208729	0.000000000
O 	3.414594878	-1.178090976	-0.016216224
H 	-0.517118992	-0.961356006	-0.008928492
C 	-1.835157509	1.121838615	-1.211186059
C 	-0.895290471	1.208771635	0.025101370
C 	-0.119817690	2.540220544	0.006301553
C 	-1.753169421	1.113055586	1.321237995
H 	-1.120697417	1.171286670	2.213885868
H 	-2.547537266	1.954869844	-1.188724790
H 	-2.403697381	0.184446345	-1.214417139
H 	-1.263038961	1.182189330	-2.143772392
H 	-0.824058463	3.379162512	0.032896641
H 	0.486511810	2.637993500	-0.901326444
H 	0.546274748	2.631325964	0.871311720
H 	-2.467457158	1.944373084	1.347608133
H 	-2.317756211	0.174062202	1.357224155
I 	1.229078347	-3.188491956	0.046022245
Zn	5.033951854	0.366922896	-0.131862877
Cl	4.113554491	2.171363141	0.573362617
Cl	6.648766248	-0.770496644	-0.912954520
