23

H 	-0.282088724	0.284545213	-0.156466050
C 	-0.037306747	-1.833272361	-0.105956740
C 	0.394740915	-0.560296593	-0.031406557
C 	1.759560488	-0.141595053	0.238710052
O 	2.153032245	1.011574932	0.290122144
H 	0.689123088	-2.635216026	0.038553444
C 	-1.426991589	-3.214645297	-1.607250009
C 	-1.449373379	-2.286064408	-0.359632042
C 	-2.430297042	-1.119642774	-0.587045777
C 	-1.891228583	-3.116129439	0.881675345
H 	-1.917994218	-2.490768180	1.780807602
H 	-2.431750502	-3.616827159	-1.782292101
H 	-0.740385031	-4.057353037	-1.464535636
H 	-1.115664080	-2.662851697	-2.501273563
H 	-3.438733982	-1.512166362	-0.758702874
H 	-2.147574565	-0.523086684	-1.461787125
H 	-2.471286769	-0.452053184	0.280632680
H 	-2.895781871	-3.520636292	0.710684014
H 	-1.209592822	-3.955251311	1.063359129
I 	3.301910572	-1.708627043	0.610509468
Zn	1.264132235	3.044487578	-0.025918948
Cl	-0.841757595	2.768257663	0.273086000
Cl	2.989861717	4.193688545	-0.487056435
