64

C 	-5.239496340	1.525533552	4.050954285
C 	-2.641923558	0.772072401	3.214025406
C 	-1.153480568	-1.138733467	4.422552638
O 	0.940194135	-1.897702148	3.637036970
H 	1.703114007	-8.138772742	-6.468593317
H 	-5.533806879	0.786219798	5.965906798
H 	-1.836058848	1.645045274	1.532191000
H 	11.078879455	0.570307515	2.544743466
H 	8.413079094	-0.993544940	3.826134758
H 	1.020905453	-7.606297979	-3.237321458
H 	10.185390242	-2.465530361	1.405714768
C 	-7.290202621	0.277471605	2.350092680
H 	-7.085420182	0.833336982	0.370846223
H 	4.139633217	-7.242176328	-4.376882965
H 	-2.630586203	-2.832480952	-2.431911661
H 	-9.168308347	0.858318444	2.997064929
H 	-7.165873930	-1.784687814	2.455416906
N 	5.694672253	-1.088714344	-0.609565177
C 	4.968485917	-1.585935586	-3.083950058
N 	2.532794841	-2.595431156	-3.228300359
C 	7.817245215	0.580439962	0.030940902
H 	4.323577193	-1.200720018	0.722321563
C 	1.705844491	-4.118777916	-5.396261803
H 	1.825976157	-3.179373743	-1.548297400
H 	8.925827006	0.724518823	-1.703349901
C 	2.147555897	-6.942771824	-4.843918554
C 	9.470379160	-0.646281799	2.080716303
H 	8.106939720	4.866359013	-2.806805923
H 	2.962819237	-3.569874876	-6.942182324
C 	6.901035277	3.239792426	0.725207949
C 	5.700746948	3.760778373	3.033362751
C 	4.812406388	6.180694014	3.588643050
C 	5.116992822	8.141990303	1.849456514
C 	6.314914666	7.654495501	-0.448583150
C 	7.193241794	5.227251822	-1.000106390
H 	5.435681263	2.272406134	4.425056412
H 	3.882428434	6.537767422	5.389936474
H 	4.430024275	10.031288254	2.285556719
H 	6.568948810	9.166181291	-1.820751990
C 	-1.056793600	-3.395705886	-6.239850228
C 	-1.792037073	-4.922860483	-8.616849301
H 	-3.586786375	-4.228828895	-9.382008121
H 	-2.039930477	-6.935175636	-8.214697762
H 	-0.367390084	-4.737993452	-10.108338001
C 	-1.120584575	-0.558609619	-6.915928737
H 	0.207269281	-0.122852853	-8.442945176
H 	-3.014851712	-0.008418749	-7.547592314
H 	-0.611266875	0.616648569	-5.295486450
C 	-3.026744287	-3.915361881	-4.149127258
H 	-3.122067024	-5.918651532	-3.639497885
H 	-4.915474677	-3.362737139	-4.795948461
C 	-6.321950702	9.669686212	4.486565674
C 	-6.441500843	8.179047984	6.657462921
C 	-6.050714022	5.573012744	6.500945447
C 	-5.555835039	4.403913702	4.176424182
C 	-5.429463402	5.927484395	2.009325379
C 	-5.808640785	8.531730160	2.161413051
H 	-6.845078105	9.041218559	8.481083383
H 	-6.159072996	4.436291646	8.212609482
H 	-5.043161903	5.093469946	0.170775740
H 	-5.707620921	9.674189543	0.454062297
H 	-6.626249804	11.700346202	4.602953661
H 	-1.970422873	-1.985282394	6.165429034
O 	6.318523722	-1.188254704	-4.945249391
