64

C 	-5.982663022	3.093667434	3.272690805
C 	-3.497156528	1.943826119	2.591147606
C 	-2.883472779	-0.659789181	2.947875284
O 	-0.827377616	-1.623917141	2.346129704
H 	2.404819190	-9.526421695	-5.099821159
H 	-7.224164798	1.577883304	3.946379916
H 	-2.031124423	3.140420031	1.781102730
H 	9.983467607	1.888050093	2.585197653
H 	7.249058420	0.513753271	3.944056157
H 	0.919333843	-8.272084628	-2.379334116
H 	9.307383921	-1.364289461	2.106628682
C 	-7.281999818	4.329766898	0.968661505
H 	-6.120988050	5.818847565	0.131067058
H 	4.239433908	-8.127890448	-2.695931012
H 	-2.612564537	-3.507166265	-3.831570040
H 	-9.088335467	5.160837222	1.537249032
H 	-7.645966048	2.914180822	-0.494356686
N 	5.001557446	-0.703355677	-0.615415948
C 	4.850701331	-2.063365214	-2.846872507
N 	2.610424570	-3.385654149	-3.124302426
C 	7.010615606	1.136997812	-0.161233536
H 	3.432236208	-0.570534834	0.463500907
C 	2.317050792	-5.374240619	-5.016793900
H 	1.494806552	-3.507058266	-1.581045606
H 	8.305508083	0.883109111	-1.747801817
C 	2.457114030	-7.980029701	-3.733020844
C 	8.466432770	0.516398060	2.272128413
H 	7.118815398	4.325180307	-4.177903804
H 	3.977944663	-5.185898613	-6.230124140
C 	6.010199066	3.847963717	-0.290440244
C 	4.831454780	5.032986823	1.765645780
C 	3.890400771	7.488895764	1.564100408
C 	4.110861792	8.816942496	-0.703241297
C 	5.279923090	7.662728178	-2.765943420
C 	6.216880193	5.207536488	-2.555811519
H 	4.646118534	4.050140230	3.559409860
H 	2.998233292	8.371742945	3.193060217
H 	3.391281082	10.736287986	-0.857582880
H 	5.473333963	8.678268980	-4.543148965
C 	-0.045519729	-4.922982530	-6.769256664
C 	-0.122534077	-6.968121924	-8.848262746
H 	-1.590946297	-6.519558929	-10.235650102
H 	-0.546757257	-8.845246946	-8.096905768
H 	1.677340651	-7.078934035	-9.865489714
C 	0.228078190	-2.325852756	-8.066863074
H 	1.966707542	-2.223590473	-9.182845214
H 	-1.365640617	-1.987349302	-9.343388784
H 	0.279518660	-0.789537563	-6.688908894
C 	-2.551368358	-4.979230779	-5.282571659
H 	-2.875692865	-6.802737828	-4.363176989
H 	-4.147112344	-4.645553494	-6.558201820
C 	-4.953529878	8.174780669	9.656186476
C 	-6.204500797	5.874553014	9.956362621
C 	-6.514163016	4.258251365	7.897006146
C 	-5.603446778	4.914756005	5.498295697
C 	-4.333861029	7.225738350	5.224725515
C 	-4.018560558	8.841249769	7.281625888
H 	-6.943625619	5.331901097	11.795734840
H 	-7.492631368	2.469044369	8.158466114
H 	-3.583419703	7.788135798	3.398328240
H 	-3.037184114	10.629151955	7.026772060
H 	-4.705009767	9.436676485	11.258490656
H 	-4.383627394	-1.860485053	3.799248787
O 	6.554639446	-2.089005676	-4.431429262
