26

H 	1.455987310	2.253257990	0.037915700
C 	3.300956450	1.177757570	-0.165308270
C 	1.966329150	1.302268080	0.137287940
C 	1.108775020	0.190125340	0.560083120
O 	-0.138743360	0.217237660	0.425571090
H 	3.708190200	0.172069900	-0.266146310
H 	4.292584960	2.376754490	2.059938530
H 	5.426516300	0.993303190	1.548106760
H 	3.916003350	0.639561000	2.580427270
C 	4.463008640	1.314666570	1.929527600
N 	1.706039150	-0.921538940	1.101515180
H 	1.097412260	-1.661102200	1.434445540
H 	2.653056930	-0.883674190	1.456384870
C 	5.175119870	1.821885330	-1.670552650
C 	5.966507330	2.756565160	-2.338320000
C 	5.730652570	4.124687010	-2.157625690
C 	4.708241260	4.549864010	-1.301826890
C 	3.932777210	3.597154190	-0.651817560
C 	4.121059380	2.213099570	-0.816459840
H 	5.355907350	0.757869220	-1.813684350
H 	6.762928950	2.420029530	-2.997966350
H 	6.340659160	4.861540260	-2.675182230
H 	4.506964340	5.604156610	-1.131381370
F 	2.961198180	4.043899300	0.213096510
I 	-1.150990410	1.721582740	-1.551256680
I 	-2.189585740	3.198684100	-3.681596520
