26

H 	1.454512767	2.201050640	-0.045897648
C 	3.327168714	1.164089365	-0.191737780
C 	1.981895876	1.262520119	0.074688143
C 	1.142254047	0.143813517	0.508575239
O 	-0.108046449	0.166334487	0.406646945
H 	3.758857002	0.166288831	-0.259179433
H 	4.156768773	2.436440575	2.046771295
H 	5.358112197	1.074850873	1.644236613
H 	3.796225951	0.703628109	2.590036613
C 	4.364198460	1.377031073	1.955803113
N 	1.754607169	-0.973612469	1.022288663
H 	1.149353792	-1.704440877	1.378988130
H 	2.702058495	-0.929807772	1.373795783
C 	5.265169606	1.806528888	-1.612113912
C 	6.068104592	2.737401343	-2.269964001
C 	5.783707605	4.103600849	-2.161342749
C 	4.698419218	4.529916450	-1.389635856
C 	3.912516088	3.580164400	-0.749804422
C 	4.150085488	2.197425837	-0.840566283
H 	5.485354375	0.744195071	-1.698874387
H 	6.912399476	2.399836377	-2.865579566
H 	6.404473907	4.837786758	-2.668721704
H 	4.454993622	5.582577644	-1.274248937
F 	2.875962336	4.031291651	0.026033666
I 	-1.239493814	1.791496168	-1.397264455
I 	-2.432103483	3.411295585	-3.337757671
