23

C 	-0.225064681	0.838235039	0.339993213
C 	2.363482297	-0.238760187	-0.396608822
C 	3.334661383	-2.072058731	1.555306943
O 	5.431766525	-2.024095082	2.404904961
H 	1.227850079	4.018549753	2.465452524
H 	-1.558749986	-0.718443013	0.627414056
H 	3.746635927	1.269726731	-0.671961250
H 	2.178870549	-1.287146812	-2.169572813
H 	-1.925098207	3.181481544	3.213077330
H 	0.614988804	1.303210807	4.320898015
C 	-0.063925882	2.436565849	2.739474169
C 	-3.031325720	5.446939911	-5.838694612
C 	-0.931580914	6.245675384	-4.439786222
C 	-0.026230721	4.758824470	-2.446430616
C 	-1.220625353	2.473238063	-1.851983381
C 	-3.320370140	1.674502571	-3.250891751
C 	-4.225720333	3.161353504	-5.244247358
H 	-0.017598226	7.994667217	-4.894673158
H 	1.580550131	5.370038205	-1.375948539
H 	-4.234352848	-0.074489243	-2.796004835
H 	-5.832501205	2.550139768	-6.314729454
H 	-3.724123903	6.584718008	-7.364063606
H 	1.978918873	-3.462260585	2.119056182
