26

H 	0.553536050	-1.688145999	0.225614430
C 	-0.764188210	-0.054015480	0.990422530
C 	0.414130430	-0.605234040	0.263595230
C 	1.369807399	0.105735190	-0.497774190
O 	2.331182379	-0.394875630	-1.127100560
H 	-0.635875830	1.021335190	1.148044859
H 	-1.920822299	-0.352154250	2.805472739
H 	-0.165991010	-0.560493460	3.025609559
C 	-1.006838820	-0.746708000	2.347877689
H 	-1.118990050	-1.829995589	2.232711579
Br	1.228028379	2.052314159	-0.578893610
C 	-4.024391778	-0.571803290	-1.842650709
C 	-3.577164038	0.714786070	-1.508730659
C 	-2.517342129	0.879014180	-0.614730070
C 	-1.915685249	-0.241776750	-0.016428710
C 	-2.356994269	-1.532465899	-0.372288970
C 	-3.410331288	-1.694061659	-1.273621909
H 	-4.056141838	1.588357539	-1.946225929
H 	-2.165247839	1.877152529	-0.363608400
H 	-1.880832929	-2.410144799	0.058003040
H 	-3.746570298	-2.694445629	-1.537141039
H 	-4.842525368	-0.697352890	-2.548772589
Al	3.044383009	-2.143028239	-1.372780649
F 	1.800030099	-3.114885659	-0.758943310
F 	4.412083148	-2.088823169	-0.406857140
F 	3.259866049	-2.229432459	-3.028559969
