12
GO, radical, R2=H, R1=F
C	 0.07237900	 0.45849000	 0.14701600
C	 0.88136400	-0.76962700	 0.34543400
H	 0.32008500	-1.64937000	 0.00848400
C	-1.24453700	 0.48140500	-0.41210600
H	 0.49150900	 1.42171500	 0.44020400
O	-1.90880100	 1.51397000	-0.58363800
C	 1.35798400	-0.97156700	 1.79839200
H	 1.97578900	-1.87216200	 1.87186400
H	 0.50807500	-1.08370100	 2.47848500
H	 1.95613700	-0.12156000	 2.14194000
H	 1.74870570	-0.70794881	-0.27811565
F	-1.77975829	-0.77116689	-0.77638863
