31

H 	1.936121572	0.923619467	-0.042632962
C 	0.000000000	0.000000000	0.000000000
C 	1.372040674	-0.000000000	0.000000000
C 	2.172539425	-1.199023306	0.000000000
O 	3.422326496	-1.235933597	-0.120957181
H 	-0.510622930	-0.944802962	0.166461916
H 	0.162991304	0.300100599	-2.753697928
H 	-1.552958707	-0.292491881	-2.317981494
H 	-0.124863068	-1.496447888	-2.358750794
C 	-0.485740802	-0.474415601	-2.363467042
O 	1.488156972	-2.355925775	0.140931434
C 	2.283765615	-3.583268974	0.112493910
H 	2.985634005	-3.593006664	0.950652217
H 	2.836994657	-3.650413811	-0.827864942
H 	1.554119680	-4.388648147	0.201675232
C 	-2.199581150	1.052544920	0.436114870
C 	-3.030515261	2.166755150	0.561633378
C 	-2.526912166	3.453180128	0.343606754
C 	-1.180078592	3.582414451	0.003962745
C 	-0.327933084	2.495622004	-0.124275853
C 	-0.838058083	1.200186950	0.099257592
H 	-2.599756402	0.055120509	0.603477223
H 	-4.076770526	2.037841148	0.827738797
H 	-3.151165297	4.338192203	0.427390611
F 	-0.680226326	4.836130942	-0.216831230
H 	0.707990113	2.665561934	-0.401334155
Sn	4.967913452	0.297449390	-1.028881744
Cl	6.354060293	-1.603008272	-0.792708680
Cl	4.450511268	1.606682569	0.889920274
Cl	6.575324478	1.778969079	-2.000338662
Cl	3.390922800	0.356853706	-2.823132273
