31

H 	1.751781630	2.004068910	-1.373066740
C 	3.541557340	1.081061910	-0.626223500
C 	2.195193760	1.143045340	-0.888515620
C 	1.236804220	0.159976740	-0.440056080
O 	-0.007254330	0.317785460	-0.480160280
H 	3.945944160	0.152814400	-0.230265830
H 	3.257918240	2.804912370	1.502166300
H 	4.610762500	1.583667830	1.903956350
H 	2.819007360	1.098748400	2.101920950
C 	3.562386410	1.787327650	1.715636390
O 	1.763831150	-0.991153210	0.036599150
C 	0.807855620	-1.986237670	0.533851390
H 	0.193835420	-2.353602100	-0.293652020
H 	0.168418900	-1.541251730	1.299870150
H 	1.428394210	-2.784256450	0.943595070
C 	5.888751400	1.697528990	-1.159419340
C 	6.850101480	2.601418680	-1.616512970
C 	6.480316690	3.887478090	-2.024970080
C 	5.129436550	4.233975990	-1.962428390
C 	4.150366000	3.358144670	-1.515868790
C 	4.526520180	2.059565320	-1.109757160
H 	6.187400030	0.701647490	-0.838439730
H 	7.896730350	2.307018740	-1.653288570
H 	7.210973350	4.610211590	-2.377646310
F 	4.756178970	5.494753740	-2.351663980
H 	3.118577220	3.694695800	-1.467840920
Sn	-1.604002470	1.977328250	0.144716440
Cl	-2.592640590	1.147631600	-1.836830160
Cl	0.117620860	3.620918040	-0.028700020
Cl	-3.374100180	3.450030470	0.791832460
Cl	-1.495280710	0.715648520	2.161522520
