27

H 	0.26204200	-1.99578500	0.19117500
C 	-1.05102300	-0.29892600	0.45758100
C 	0.15768200	-0.91473700	0.20233400
C 	1.32677500	-0.15542200	-0.07157500
O 	2.43547300	-0.68994100	-0.33512200
H 	-1.07641600	0.78555700	0.34753700
H 	-0.82939300	-0.68571800	3.29426400
H 	-1.40636400	1.04548000	2.92991400
H 	0.38114000	0.59451400	2.72814400
C 	-0.64888900	0.27715900	2.83269400
C 	-2.79898200	-0.82409200	-1.14729900
C 	-2.41304600	-0.96709400	0.35854100
C 	-3.47756200	-0.22659300	1.19469000
C 	-2.40142500	-2.46006400	0.73415100
H 	-2.07066400	-2.61803200	1.76412100
H 	-3.79539400	-1.24867500	-1.30468000
H 	-2.09295000	-1.35276000	-1.79243600
H 	-2.82788800	0.22430200	-1.45924500
H 	-4.47337500	-0.60393300	0.94545100
H 	-3.47293200	0.84938800	0.99380800
H 	-3.32772600	-0.37665100	2.26625800
H 	-3.41219800	-2.86871300	0.64710300
H 	-1.75886900	-3.04923700	0.07507000
H 	1.25827800	0.94305100	-0.06000300
Al	4.04887000	0.25022400	-0.76109100
F 	3.66754200	1.80612200	-0.22933900
F 	4.14324900	0.08860700	-2.42748000
