32

H 	1.902848210	0.917350787	0.178502544
C 	0.000000000	0.000000000	0.000000000
C 	1.349277930	0.000000000	0.000000000
C 	2.218499689	-1.183130110	0.000000000
O 	3.228800217	-1.194215717	0.774917405
H 	-0.537266104	-0.938386663	-0.135896690
O 	-0.717485597	4.694878804	1.371430603
H 	0.234366231	4.629805923	1.568667950
C 	-1.168757741	3.487800474	0.885430020
C 	-2.538294504	3.395102707	0.581700365
C 	-3.055217059	2.189010623	0.109612902
C 	-2.225427125	1.078272513	-0.065267093
C 	-0.847692640	1.170599149	0.216964852
C 	-0.329434068	2.388063403	0.705919816
H 	-3.173292165	4.263633334	0.735417180
H 	-4.116315369	2.113903364	-0.116568579
H 	0.721589008	2.467070365	0.976026666
H 	-2.636976378	0.139078722	-0.427934517
N 	1.992759897	-2.266754600	-0.778334382
C 	2.828797083	-3.468546322	-0.615711199
C 	1.047345141	-2.300807419	-1.900872956
H 	3.375972409	-3.406931976	0.323981111
H 	3.543265832	-3.546096074	-1.445507680
H 	2.181435407	-4.352677725	-0.620164515
H 	0.168351063	-2.911343444	-1.656716699
H 	1.549942225	-2.748727438	-2.766078597
H 	0.727799324	-1.291444108	-2.157720930
Ti	4.052740739	-0.117311520	2.388447930
Cl	4.927523911	1.063416936	4.097193237
Cl	4.437334988	1.522397131	0.861747026
Cl	2.002650949	-0.275905191	3.320543471
Cl	5.464437001	-1.853982808	2.568745694
