26

H 	0.511437270	-1.835924010	0.052105630
C 	-0.747109950	-0.147716000	0.813825380
C 	0.420379370	-0.752772820	0.105826540
C 	1.438655160	0.007207480	-0.519952370
O 	2.481467490	-0.459361780	-1.068557730
H 	-0.572677130	0.928959260	0.923261780
H 	-1.826861920	-0.277205490	2.693094300
H 	-0.081146800	-0.554684260	2.854732290
C 	-0.954948570	-0.742917640	2.223342720
H 	-1.123329780	-1.822319460	2.187730370
H 	1.340045730	1.103455290	-0.524346970
C 	-4.313357000	-0.532901300	-1.648555350
C 	-3.840361780	0.725906610	-1.275476860
C 	-2.679435590	0.839620680	-0.513633890
C 	-1.987078290	-0.303108760	-0.087673580
C 	-2.465222640	-1.564471770	-0.478541290
C 	-3.620466330	-1.675799070	-1.248243220
H 	-4.377279320	1.622827600	-1.575989430
H 	-2.324039350	1.827017110	-0.226936250
H 	-1.944617960	-2.469876950	-0.179962610
H 	-3.978332960	-2.660624880	-1.538834530
H 	-5.214482420	-0.622400620	-2.250707790
Al	3.303545670	-2.189908190	-1.270573180
F 	2.024163940	-3.274666640	-1.035646750
F 	4.413648610	-2.164028820	-0.007171650
F 	3.908601950	-2.121048660	-2.832866190
