26

H 	0.966476366	-3.469393564	0.098465361
C 	-1.411833182	-0.279142778	1.537907077
C 	0.794401881	-1.422534470	0.199983170
C 	2.718664242	0.013620171	-0.982567582
O 	4.689293938	-0.868067950	-2.019281462
H 	-1.082202927	1.755478583	1.744711909
H 	-3.452268703	-0.523842452	5.089210656
H 	-0.153345235	-1.048201337	5.394662195
C 	-1.804591260	-1.403910871	4.201508824
H 	-2.122785640	-3.443684694	4.134211243
H 	2.532319417	2.085228281	-0.990872174
C 	-8.151063400	-1.007037509	-3.115318122
C 	-7.257231991	1.371764686	-2.410301942
C 	-5.063399444	1.586653134	-0.970627387
C 	-3.755033764	-0.572792534	-0.165679058
C 	-4.658595619	-2.956423169	-0.904311972
C 	-6.841689802	-3.166801282	-2.358837815
H 	-8.271859090	3.066699703	-2.978188393
H 	-4.391797877	3.452561966	-0.428847361
H 	-3.674795363	-4.667390989	-0.340080039
H 	-7.517959724	-5.027852340	-2.907975821
H 	-9.853943664	-1.176166721	-4.253221309
Al	6.242796562	-4.138326711	-2.401035336
F 	3.825115487	-6.188223106	-1.957088725
F 	8.340587077	-4.089421796	-0.013552463
F 	7.386187208	-4.008201067	-5.353341252
