26

H 	0.496903926	-1.810936902	0.187243655
C 	-0.789914384	-0.166748492	0.984054853
C 	0.385468277	-0.731453769	0.264509732
C 	1.356909446	0.062987705	-0.384276319
O 	2.362973502	-0.376132898	-1.013700572
H 	-0.639651132	0.909059291	1.127724582
H 	-1.923339232	-0.388602416	2.822018737
H 	-0.174295933	-0.612572550	3.021082822
C 	-1.024938945	-0.810085801	2.361523756
H 	-1.150450064	-1.893429332	2.293775513
H 	1.257867726	1.157495422	-0.336290102
C 	-4.098883094	-0.563296933	-1.810174600
C 	-3.561355622	0.692749619	-1.521110251
C 	-2.492043877	0.808332548	-0.636168145
C 	-1.958820229	-0.325920827	-0.003519824
C 	-2.496265961	-1.586616228	-0.315422967
C 	-3.561932969	-1.700894997	-1.204430612
H 	-3.974559913	1.584447100	-1.986255519
H 	-2.081472422	1.791703552	-0.418757128
H 	-2.089736992	-2.486098437	0.137301059
H 	-3.969905413	-2.683082290	-1.429675936
H 	-4.926760113	-0.655557772	-2.508713153
Al	3.110593007	-2.082446873	-1.456793201
F 	2.009551115	-3.195292277	-0.820917321
F 	4.578903424	-2.032235053	-0.653632701
F 	3.146353273	-2.022114479	-3.129146986
