26

H 	0.939012329	-3.422174774	0.353839226
C 	-1.492721847	-0.315108981	1.859594164
C 	0.728429473	-1.382247297	0.499850950
C 	2.564187229	0.119029512	-0.726177000
O 	4.465372759	-0.710788164	-1.915616454
H 	-1.208765455	1.717873092	2.131090603
H 	-3.634584394	-0.734352138	5.332842531
H 	-0.329371578	-1.157594352	5.709019134
C 	-1.936853901	-1.530840302	4.462633136
H 	-2.174035542	-3.578062874	4.334607511
H 	2.377025504	2.187349339	-0.635496192
C 	-7.745766464	-1.064476930	-3.420734232
C 	-6.729986758	1.309107052	-2.874481780
C 	-4.709280418	1.527527134	-1.202183564
C 	-3.701633760	-0.615901102	-0.006651502
C 	-4.717259000	-2.998270136	-0.596063021
C 	-6.731077786	-3.214225711	-2.276043993
H 	-7.510829701	2.994171079	-3.753478945
H 	-3.933412814	3.385829010	-0.791336285
H 	-3.949030588	-4.698045164	0.259461398
H 	-7.502033971	-5.070290698	-2.701695965
H 	-9.310227296	-1.238824648	-4.740780784
Al	5.878168868	-3.935254259	-2.752940170
F 	3.797501241	-6.038227292	-1.551308908
F 	8.652873423	-3.840367671	-1.235186791
F 	5.945745978	-3.821242558	-5.913230807
