23

H 	  1.933072	  0.917681	  0.034381
C 	  0.000000	  0.000000	  0.000000
C 	  1.351391	 -0.000000	 -0.000000
C 	  2.074318	 -1.250760	 -0.000000
O 	  3.313240	 -1.380344	 -0.002558
H 	 -0.511952	 -0.967616	 -0.012026
C 	 -1.854868	  1.109817	 -1.200555
C 	 -0.910597	  1.196935	  0.031890
C 	 -0.141214	  2.532664	  0.014451
C 	 -1.762767	  1.094259	  1.331150
H 	 -1.127387	  1.153705	  2.221579
H 	 -2.570540	  1.939842	 -1.173284
H 	 -2.420940	  0.170603	 -1.203774
H 	 -1.287148	  1.174941	 -2.135607
H 	 -0.849104	  3.368087	  0.050815
H 	  0.456034	  2.637477	 -0.898596
H 	  0.531207	  2.621524	  0.874789
H 	 -2.481211	  1.921813	  1.362183
H 	 -2.323860	  0.152822	  1.366764
H 	  1.464594	 -2.175508	  0.002587
Zn	  4.829754	  0.129317	 -0.018520
Cl	  4.198142	  1.646089	  1.382405
Cl	  6.262610	 -0.532741	 -1.461454
