23

H 	1.933071921	0.917681438	0.034381205
C 	0.000000000	0.000000000	0.000000000
C 	1.351391430	-0.000000000	0.000000000
C 	2.074317803	-1.250760059	-0.000000000
O 	3.313240468	-1.380343998	-0.002558481
H 	-0.511952070	-0.967616493	-0.012026269
C 	-1.854868256	1.109816825	-1.200554899
C 	-0.910596726	1.196934620	0.031890232
C 	-0.141213719	2.532664007	0.014450674
C 	-1.762767494	1.094259309	1.331150122
H 	-1.127387404	1.153705008	2.221578941
H 	-2.570539738	1.939841759	-1.173284412
H 	-2.420940477	0.170602760	-1.203773988
H 	-1.287147785	1.174941448	-2.135607184
H 	-0.849103741	3.368086567	0.050815286
H 	0.456034381	2.637477374	-0.898596436
H 	0.531207016	2.621523952	0.874789148
H 	-2.481210709	1.921812583	1.362183292
H 	-2.323859518	0.152821679	1.366764367
H 	1.464594341	-2.175507506	0.002587209
Zn	4.829753558	0.129316826	-0.018519735
Cl	4.198141792	1.646089334	1.382405313
Cl	6.262609849	-0.532740977	-1.461454211
