23

H 	-0.335540610	0.369455590	-0.078787300
C 	-0.067723650	-1.753161780	0.025093870
C 	0.338752180	-0.465631500	0.098057110
C 	1.710644310	-0.157465330	0.434478450
O 	2.219062480	0.980954290	0.458805360
H 	0.668773660	-2.536515660	0.232762580
C 	-1.308674420	-3.102472400	-1.627986910
C 	-1.442560870	-2.253942180	-0.328383170
C 	-2.453955000	-1.109937900	-0.547333770
C 	-1.923104730	-3.175316400	0.829894580
H 	-2.026693280	-2.610831000	1.763675510
H 	-2.285241830	-3.529608420	-1.886810420
H 	-0.598772000	-3.927813080	-1.494998150
H 	-0.968415980	-2.483776480	-2.466239250
H 	-3.438473780	-1.526698010	-0.788363130
H 	-2.152192230	-0.460546070	-1.377309600
H 	-2.558506800	-0.489733690	0.350228730
H 	-2.900123810	-3.603871220	0.575694650
H 	-1.221430330	-4.001259860	0.999398510
H 	2.364993650	-1.014635570	0.689357570
Zn	1.327793100	2.822913810	-0.148033330
Cl	-0.624917180	2.917512360	0.774477160
Cl	2.763638580	3.704610170	-1.467847970
