18

H 	1.935729448	0.917220340	-0.000899341
C 	0.000000000	0.000000000	0.000000000
C 	1.352630239	-0.000000000	-0.000000000
C 	2.172799793	-1.206901307	-0.000000000
H 	-0.501485040	-0.966839286	-0.000678430
O 	3.369557126	-1.289063653	-0.000065164
F 	1.404461858	-2.385498486	-0.000495246
C 	-2.673638782	3.341082832	-0.009474811
C 	-1.289329696	3.567411949	0.009030239
C 	-0.401633056	2.495005168	0.013030179
C 	-0.878851589	1.165083629	-0.001418074
C 	-2.274771940	0.955294537	-0.018743390
C 	-3.163531767	2.031169472	-0.023412029
H 	-0.906211544	4.585276496	0.020925273
H 	0.667519860	2.689303253	0.027955727
H 	-2.655599559	-0.064115079	-0.029508254
H 	-4.235641618	1.848738332	-0.037167160
H 	-3.362876344	4.182451000	-0.012277715
