26

H 	0.276796896	-3.323080198	0.605694888
C 	-1.999523575	0.034417260	1.736414320
C 	0.346090338	-1.244318971	0.723127271
C 	2.571924741	-0.492622435	-0.049145728
O 	7.599884376	-0.323599758	-1.479824418
H 	-1.684951950	2.068060496	1.612024948
H 	-3.837820004	0.335792212	5.428823788
H 	-0.527589271	0.006425276	5.571297942
C 	-2.223699217	-0.623436513	4.573096393
H 	-2.424236380	-2.654480053	4.896143102
C 	-3.909116388	0.246473716	-2.673888449
C 	-4.418390360	-0.546640180	0.087310395
C 	-6.639982714	1.060578331	1.090835029
C 	-5.177101433	-3.359128103	0.150656612
H 	-5.621261314	-4.008131922	2.061370811
H 	-5.607767746	-0.035379486	-3.820138214
H 	-2.388988147	-0.858809485	-3.531374720
H 	-3.389494195	2.243982981	-2.802939987
H 	-8.272278727	0.863418679	-0.164526886
H 	-6.149227014	3.068902819	1.163975006
H 	-7.248431295	0.478977288	2.976638430
H 	-6.867596533	-3.654735615	-1.004247853
H 	-3.703583996	-4.589410253	-0.619546879
H 	6.301379957	-1.628428047	-1.609687681
I 	5.018841011	2.615869099	-0.384904713
I 	1.690277774	6.729178330	1.073603944
