30

H 	  0.653507	 -2.016354	 -0.087423
C 	  0.000000	  0.000000	  0.000000
C 	 -0.202137	 -1.351519	  0.000000
C 	 -1.492260	 -1.998390	  0.000000
O 	 -1.598138	 -3.243034	 -0.186549
H 	 -0.860457	  0.660139	  0.108485
H 	  0.186944	 -0.664719	 -2.763629
H 	 -0.054474	  1.196417	 -2.754704
H 	 -1.492388	  0.061485	 -2.441294
C 	 -0.421461	  0.201753	 -2.533280
C 	 -2.765774	 -1.212208	  0.228309
H 	 -2.896773	 -0.459337	 -0.559396
H 	 -2.728748	 -0.679804	  1.186205
H 	 -3.618125	 -1.894254	  0.218744
C 	  1.439439	  0.849027	  1.783154
C 	  1.344202	  0.667335	  0.232915
C 	  1.400224	  2.067956	 -0.420714
C 	  2.532358	 -0.186456	 -0.257319
H 	  2.442126	 -0.415179	 -1.324560
H 	  2.382631	  1.350054	  2.031788
H 	  1.412077	 -0.120148	  2.292060
H 	  0.615526	  1.464450	  2.164141
H 	  2.271749	  2.617637	 -0.047162
H 	  0.503666	  2.655181	 -0.185879
H 	  1.491009	  1.996426	 -1.507991
H 	  3.468308	  0.361754	 -0.101320
H 	  2.610828	 -1.132350	  0.288958
Zn	 -0.113117	 -4.500636	 -0.913374
Cl	  0.108107	 -6.195235	  0.386189
Cl	  0.667990	 -3.531867	 -2.697075
