30

H 	0.653507111	-2.016353563	-0.087423431
C 	0.000000000	0.000000000	0.000000000
C 	-0.202137128	-1.351518651	0.000000000
C 	-1.492259688	-1.998390029	0.000000000
O 	-1.598138399	-3.243033752	-0.186549309
H 	-0.860457149	0.660138939	0.108485131
H 	0.186944396	-0.664718970	-2.763628957
H 	-0.054474230	1.196416997	-2.754704347
H 	-1.492388153	0.061484826	-2.441294026
C 	-0.421461187	0.201753369	-2.533280494
C 	-2.765774024	-1.212207903	0.228309032
H 	-2.896772955	-0.459337111	-0.559396399
H 	-2.728748314	-0.679803941	1.186204566
H 	-3.618125157	-1.894253604	0.218744465
C 	1.439439121	0.849027195	1.783154135
C 	1.344202350	0.667335151	0.232914689
C 	1.400224101	2.067955756	-0.420713608
C 	2.532358366	-0.186456146	-0.257319410
H 	2.442125995	-0.415178487	-1.324559796
H 	2.382631441	1.350054425	2.031788045
H 	1.412076613	-0.120147977	2.292060256
H 	0.615526440	1.464450413	2.164140626
H 	2.271748527	2.617637306	-0.047161910
H 	0.503666215	2.655181058	-0.185878789
H 	1.491008872	1.996425977	-1.507991359
H 	3.468307532	0.361753536	-0.101319812
H 	2.610828460	-1.132349647	0.288957800
Zn	-0.113117091	-4.500636017	-0.913373745
Cl	0.108106598	-6.195234733	0.386189105
Cl	0.667989699	-3.531866552	-2.697075042
