33

H 	2.016492475	0.952068563	0.101852461
C 	0.000000000	0.000000000	0.000000000
C 	1.496512114	0.000000000	0.000000000
C 	2.312055518	-1.165818086	-0.000000000
O 	3.562579839	-1.082369579	0.277949000
H 	-0.365514959	-0.678954381	-0.786055019
H 	-1.672119681	1.380199729	-0.241706153
H 	-0.244965229	1.793035815	-1.223537476
C 	-0.577660115	1.408330908	-0.252548464
H 	-0.245264810	2.103256674	0.526373086
C 	2.790974183	-3.655275340	-0.362643177
C 	1.748569393	-2.533018975	-0.318092072
H 	3.302795701	-3.753869925	0.599508931
H 	3.553486548	-3.457865344	-1.122925521
H 	2.303816503	-4.607454091	-0.597880112
H 	0.977367362	-2.746428773	0.437882554
H 	1.201734542	-2.462827885	-1.270692738
O 	-2.859236021	-3.043363043	2.720717000
H 	-3.201993290	-3.255195785	1.833882825
C 	-1.863074505	-2.099313297	2.615597902
C 	-1.246858932	-1.684369392	3.809038291
C 	-0.239377740	-0.723583206	3.757330665
C 	0.160280646	-0.166221978	2.536492173
C 	-0.458165937	-0.584452704	1.343180168
C 	-1.461245196	-1.559621479	1.386492878
H 	-1.567729924	-2.123464305	4.749881521
H 	0.249648919	-0.407300996	4.675312649
H 	-1.937661508	-1.893727043	0.464439946
H 	0.961499985	0.567317170	2.517332021
Al	4.470743976	0.360017393	1.077673754
F 	3.531383236	0.628632584	2.458647207
F 	4.303695165	1.616827242	-0.036514412
F 	6.022358764	-0.208854092	1.334414312
