32

H 	1.566163000	-1.978416000	0.260135000
C 	3.053084000	-1.046915000	-0.929184000
C 	1.906421000	-1.066377000	-0.223787000
C 	0.895260000	0.016797000	-0.208641000
O 	-0.313611000	-0.274995000	-0.405939000
H 	3.351049000	-0.121783000	-1.424374000
H 	3.869745220	-1.503740440	1.262015340
H 	4.704644310	0.089976920	0.731697320
H 	2.983427250	0.137914910	1.478612970
C 	3.846212550	-0.427178700	1.145020880
N 	1.131784890	1.350248800	0.002483100
C 	0.571962600	2.113872090	1.125389620
C 	2.233457370	2.001784840	-0.716409920
H 	-0.340676290	1.628504900	1.471186450
H 	1.287260160	2.163537140	1.958389380
H 	0.353155450	3.133614950	0.787815320
H 	1.858866290	2.817558180	-1.349681010
H 	2.934051340	2.428294090	0.013574380
H 	2.767613200	1.280906010	-1.335330310
C 	3.582358000	-3.508923000	-0.837186000
C 	4.482667000	-4.559905000	-0.994726000
C 	5.772619000	-4.274247000	-1.441152000
C 	6.184044000	-2.981062000	-1.750460000
C 	5.268186000	-1.940095000	-1.592349000
C 	3.961890000	-2.177424000	-1.117081000
H 	2.565753000	-3.728770000	-0.523536000
H 	4.195534000	-5.588185000	-0.793214000
F 	6.659931000	-5.304063000	-1.595742000
H 	7.194204000	-2.804387000	-2.109125000
H 	5.572155000	-0.922562000	-1.829942000
I 	-0.896471000	-2.670599000	-1.488788000
I 	-1.506753000	-5.136784000	-2.660179000
