26

H 	1.550557420	2.112502960	-0.405676720
C 	3.419852570	1.069918110	-0.361283400
C 	2.061682870	1.162558290	-0.258481450
C 	1.154833570	0.096608890	0.101433320
O 	-0.047994680	0.176626770	0.251462080
H 	3.867373010	0.081730060	-0.277684860
H 	4.646493140	1.946987840	2.178893820
H 	4.204813120	0.131321340	2.172184830
H 	2.884824660	1.414370290	2.452501290
C 	3.893394090	1.169045560	2.141026310
Cl	1.933985430	-1.566300440	0.363653250
C 	4.141702500	2.008133720	-2.515428610
C 	4.303738910	2.150429490	-0.966678290
C 	5.787253070	1.902353070	-0.610316150
C 	3.886220410	3.576550380	-0.542259240
H 	3.949970230	3.700457220	0.544414920
H 	4.800746890	2.727409590	-3.017282810
H 	3.108108040	2.205826660	-2.818315060
H 	4.413054840	1.000557730	-2.852229120
H 	6.428140790	2.596335080	-1.166771210
H 	6.089406420	0.880361610	-0.870936390
H 	5.977589990	2.051148290	0.456976550
H 	4.551725690	4.311536970	-1.010547300
H 	2.862588900	3.812935960	-0.852561690
I 	-1.296797090	2.758379530	0.449862340
I 	-2.391027010	5.282831800	0.702920380
