26

H 	1.565726629	2.210787998	-0.198771320
C 	3.378366846	1.086548609	-0.347414948
C 	2.039833743	1.233573555	-0.136261664
C 	1.106264616	0.188762858	0.212757743
O 	-0.087234589	0.308701060	0.402036074
H 	3.786856344	0.078134632	-0.350862180
H 	4.301690885	2.024749158	2.249730615
H 	4.917967854	0.288041278	1.939620526
H 	3.158466268	0.570405191	2.479058819
C 	4.093972854	0.970900322	2.109862780
Cl	1.823890766	-1.507082845	0.394936789
C 	4.120885809	1.992055594	-2.497492632
C 	4.266325944	2.160397651	-0.950971467
C 	5.748404089	1.927176963	-0.575836907
C 	3.841542110	3.589954296	-0.553238770
H 	3.865391104	3.722549936	0.534069872
H 	4.772939960	2.713363751	-3.004646702
H 	3.087419200	2.169074337	-2.812766210
H 	4.410974163	0.984207761	-2.816603167
H 	6.388683779	2.602925302	-1.154322423
H 	6.054721733	0.897745933	-0.798393422
H 	5.929816159	2.117062316	0.485853953
H 	4.529121063	4.317054447	-0.999934276
H 	2.832959122	3.831941514	-0.904405827
I 	-1.322544197	2.873995731	0.330173889
I 	-2.430204474	5.407589422	0.252697645
