32

H 	1.428511025	1.818939292	0.770288547
C 	3.491796385	1.070097877	0.436025831
C 	1.992746281	0.938163042	0.470906473
C 	1.210009217	-0.059519266	-0.247081686
O 	0.173371648	0.276602592	-0.891242521
H 	3.945463012	0.105828293	0.183936602
H 	5.149863748	1.722386545	1.694462719
H 	3.900796939	0.796765844	2.562788849
C 	4.071729717	1.547952798	1.782896525
H 	3.599878807	2.479249512	2.114310921
N 	1.626428876	-1.371973770	-0.271062493
C 	0.930691776	-2.320100630	-1.146577275
C 	2.456642756	-1.968554683	0.778132280
H 	0.518400421	-1.784740647	-2.002258583
H 	0.107535825	-2.821947881	-0.617102671
H 	1.646081491	-3.078871401	-1.484273817
H 	3.382335745	-2.386919415	0.360775708
H 	1.901167637	-2.781122330	1.266889063
H 	2.703664998	-1.224574318	1.535808343
C 	3.693602796	3.406553412	-0.620385181
C 	3.884169641	4.239999175	-1.723482580
C 	4.162160256	3.657505163	-2.957161999
C 	4.255970703	2.278904348	-3.121122631
C 	4.064800039	1.462612296	-2.003961034
C 	3.791092864	2.010732553	-0.741522461
H 	3.452203272	3.857160272	0.338307996
H 	3.796820218	5.319143374	-1.644210958
F 	4.346505226	4.466166631	-4.044900604
H 	4.467348066	1.863665778	-4.102489244
H 	4.119194026	0.381665597	-2.119080546
I 	0.162173309	2.720764127	-1.983885468
I 	0.318056481	5.231027797	-3.200422115
