67

C 	0.000000000	0.000000000	0.000000000
C 	0.170239576	-1.362509888	0.000000000
C 	1.446210380	-2.050709632	0.000000000
O 	1.492465335	-3.295289061	0.134533934
H 	0.444480558	-3.847302652	5.879390124
H 	0.877562106	0.636582374	0.094130542
H 	-0.697865718	-2.010762394	0.036636335
H 	-2.166420363	-6.497130222	-1.866706468
H 	-0.563624557	-5.785870579	-1.603128992
H 	1.490690538	-3.851284116	4.447491678
H 	-1.223183365	-6.928744940	-0.416352965
C 	0.094261407	0.566105602	-2.395427606
H 	-0.883717534	0.131570260	-2.555927797
H 	0.218222293	-5.075011028	4.622068818
H 	1.054996120	-1.260850630	2.663222274
H 	0.174473238	1.638885913	-2.262811606
H 	0.969761595	0.010598849	-2.711459062
N 	-1.207617564	-4.460767398	0.687015084
C 	-1.570395402	-4.012810997	1.928561411
N 	-0.527477046	-3.472499670	2.634531818
C 	-2.146366178	-4.967331226	-0.323247775
H 	-0.255302001	-4.246554240	0.372297522
C 	-0.548996622	-3.129073500	4.063297732
H 	0.388901337	-3.534992317	2.196729616
H 	-3.000076244	-5.357630684	0.238073131
C 	0.465665618	-4.022848754	4.799729265
C 	-1.482021526	-6.114530914	-1.101754610
H 	-4.589926149	-3.789594838	-0.277695986
H 	-1.556962919	-3.387780530	4.403725758
C 	-2.661561543	-3.846078981	-1.228002811
C 	-1.853042603	-3.269269139	-2.220488055
C 	-2.344683901	-2.246678445	-3.037547715
C 	-3.652999343	-1.778209491	-2.869226007
C 	-4.463780287	-2.341195318	-1.878758214
C 	-3.969942433	-3.365490804	-1.063212978
H 	-0.831866869	-3.617895325	-2.359379548
H 	-1.708461672	-1.820921617	-3.810579250
H 	-4.035180790	-0.981945206	-3.504280069
H 	-5.480030339	-1.979276899	-1.735762728
C 	-0.372519123	-1.585918708	4.291200806
C 	-0.457421988	-1.277842455	5.803642004
H 	-0.484277021	-0.192846992	5.963866220
H 	0.403036326	-1.672472011	6.355275528
H 	-1.369971465	-1.703231789	6.240446452
C 	-1.523900046	-0.849655249	3.572197633
H 	-2.495304633	-1.148218585	3.980350534
H 	-1.415176683	0.236118876	3.685721254
H 	-1.534321039	-1.078876774	2.505095049
C 	0.979841206	-1.082715070	3.740657316
H 	1.830003094	-1.567547535	4.234778594
H 	1.073691182	-0.001599159	3.903088158
S 	-3.153061901	-4.106379974	2.530118640
C 	2.743521561	-1.262308795	-0.117185947
H 	2.926614555	-0.706186485	0.812189393
H 	2.704430093	-0.532190278	-0.933831400
H 	3.570350209	-1.957682870	-0.278460736
C 	-3.708145571	1.993102083	0.781363427
C 	-3.712266627	0.647230298	0.391701771
C 	-2.515947995	-0.010382565	0.119237847
C 	-1.285603640	0.668628210	0.230170438
C 	-1.294990147	2.025666123	0.609111416
C 	-2.494359728	2.682123299	0.887809904
H 	-4.649986096	0.104223555	0.304701119
H 	-2.544102674	-1.053034541	-0.177485923
H 	-0.350198857	2.560239305	0.695069951
H 	-2.483672175	3.727218722	1.189287065
H 	-4.644786391	2.501335701	0.999540788
