67

C 	0.922297047	-0.898280231	2.188093423
C 	1.902304489	-1.738642329	1.720341710
C 	3.293682989	-1.381502032	1.524798719
O 	4.134068902	-2.258986286	1.219856504
H 	4.863896353	-4.960092994	6.375216645
H 	1.204619154	0.096331711	2.527584573
H 	1.661128068	-2.772232879	1.499649971
H 	2.970543013	-6.333024875	-1.893439434
H 	3.787110222	-4.857866424	-1.344400911
H 	5.361808457	-3.870176260	5.067902840
H 	4.247307328	-6.425872681	-0.652163980
C 	0.149815706	0.237659235	0.143503419
H 	-0.348021712	-0.662913044	-0.191386952
H 	5.203986995	-5.610592189	4.762607989
H 	3.049532042	-1.840723383	4.281460612
H 	-0.433305509	1.002489526	0.643386218
H 	1.091986996	0.513997052	-0.315751286
N 	2.941690372	-5.003407512	1.240065841
C 	2.642132656	-5.280254592	2.546714550
N 	3.234246405	-4.417590616	3.431712526
C 	2.344755119	-5.687887975	0.085231778
H 	3.460803766	-4.139075498	1.052207360
C 	3.295360047	-4.596364980	4.889135428
H 	3.874115118	-3.735377667	3.031114271
H 	2.060400074	-6.680350869	0.446334693
C 	4.768932046	-4.763086696	5.303254375
C 	3.403242747	-5.832763530	-1.020258542
H 	-0.222857202	-6.482716137	0.453658786
H 	2.767396652	-5.535625134	5.083716103
C 	1.070807491	-4.986465186	-0.390455144
C 	1.116401867	-3.771233529	-1.092290313
C 	-0.060201575	-3.148124959	-1.519290817
C 	-1.304177817	-3.727737264	-1.243505862
C 	-1.360530489	-4.934222488	-0.538833590
C 	-0.181516221	-5.556650797	-0.113769530
H 	2.075179689	-3.304804092	-1.308668713
H 	-0.005110018	-2.213774802	-2.073889825
H 	-2.219641824	-3.242445395	-1.574882661
H 	-2.323068770	-5.389289762	-0.313821028
C 	2.510174163	-3.466574368	5.645089879
C 	2.562743813	-3.735381793	7.166463223
H 	1.896978639	-3.040157609	7.692797919
H 	3.570348696	-3.602227251	7.575636548
H 	2.230554044	-4.755749580	7.396681150
C 	1.035646301	-3.504663910	5.187876314
H 	0.573981721	-4.466943202	5.433314916
H 	0.461976762	-2.706618910	5.675360948
H 	0.952995890	-3.369484352	4.107943711
C 	3.101768721	-2.070738162	5.350390609
H 	4.146253266	-1.991096051	5.673968667
H 	2.529803393	-1.299568654	5.881574631
S 	1.631399083	-6.555538248	3.023714278
C 	3.754091137	0.054753436	1.733411500
H 	3.734299635	0.300445913	2.803821279
H 	3.101303435	0.770596662	1.220627258
H 	4.778667115	0.157549091	1.368887984
C 	-2.957227538	-2.162290810	3.486128302
C 	-2.198602523	-2.995193062	2.653070096
C 	-0.942032123	-2.591830068	2.210126914
C 	-0.417059453	-1.340611484	2.592180125
C 	-1.195030937	-0.505741712	3.418611672
C 	-2.451902810	-0.913681962	3.866890725
H 	-2.583280842	-3.965942251	2.350726183
H 	-0.372073366	-3.254936325	1.568723818
H 	-0.799966386	0.464053803	3.717289756
H 	-3.035575046	-0.261687085	4.512999499
H 	-3.935901304	-2.484110220	3.835168017
