29

H 	1.896551363	0.916521778	0.204151136
C 	0.000000000	0.000000000	0.000000000
C 	1.347856610	-0.000000000	0.000000000
C 	2.197950390	-1.217042433	0.000000000
O 	3.084658093	-1.338617143	0.883408153
H 	-0.507590963	-0.954421434	-0.168150460
O 	-2.693068874	0.305870461	-1.076213949
H 	-2.006055366	-0.339174090	-1.315798148
C 	-2.160489478	1.249010368	-0.217300711
C 	-2.984820966	2.331740495	0.107993597
C 	-2.509853878	3.338296932	0.947440254
C 	-1.210364359	3.270378688	1.471930626
C 	-0.394977848	2.190219135	1.152168618
C 	-0.845082179	1.155548664	0.300758021
H 	-3.986011830	2.370230416	-0.313552495
H 	-3.157133644	4.175750489	1.197898367
H 	0.590973981	2.104903451	1.601186094
H 	-0.847301866	4.043561220	2.143733845
N 	1.999793880	-2.204233586	-0.923821656
C 	2.759334620	-3.456478927	-0.808417059
C 	1.246162837	-2.036442647	-2.170869575
H 	3.127320034	-3.559846337	0.212190143
H 	3.614677232	-3.458063664	-1.498392029
H 	2.101533150	-4.296537520	-1.059988313
H 	0.360020929	-2.686035780	-2.183356987
H 	1.884915354	-2.312995657	-3.019885334
H 	0.936706088	-0.998587023	-2.287867287
I 	2.941124499	0.231425109	3.076411642
I 	2.748630602	1.848875021	5.345611484
