29

H 	2.689339640	-0.027875170	1.392520570
C 	4.071706230	-0.274495450	-0.193674230
C 	2.992197540	-0.625075770	0.535236020
C 	1.984898020	-1.639136780	0.127894090
O 	0.767792450	-1.320028620	0.118300300
H 	4.309832820	-0.882621240	-1.071679440
O 	6.881464440	-0.120668920	-0.995349480
H 	6.294934250	-0.896581960	-0.973838490
C 	6.248776330	0.955396580	-0.398524860
C 	7.022103410	2.108865480	-0.222416400
C 	6.468235190	3.229832340	0.394750580
C 	5.136298940	3.210376610	0.836922720
C 	4.366993320	2.066417600	0.653607270
C 	4.899905220	0.910814830	0.035804580
H 	8.053802720	2.102475590	-0.566246020
H 	7.075392980	4.123068970	0.526452330
H 	3.318677570	2.067644830	0.941264100
H 	4.696877620	4.090618310	1.299298130
N 	2.379371670	-2.888961010	-0.264014730
C 	1.379606520	-3.821204960	-0.806397290
C 	3.695232400	-3.473159270	0.024194060
H 	0.511051970	-3.257301000	-1.147451340
H 	1.060050870	-4.540131920	-0.038603370
H 	1.824819300	-4.373062550	-1.642914240
H 	4.247095440	-3.672389440	-0.905354730
H 	3.559893970	-4.426009950	0.552864550
H 	4.276631310	-2.800665580	0.654280640
I 	0.125499750	1.302906390	0.170425920
I 	-0.497512330	4.025035230	0.189072110
