25

C 	0.187652604	0.535549837	0.326642342
C 	1.383887327	-0.447016296	0.481791244
H 	1.460661506	-1.018671770	-0.457917784
C 	-1.035332204	-0.158285108	-0.233456046
H 	0.446568820	1.330587428	-0.388605378
H 	-0.076128953	1.002533972	1.282251181
H 	1.043474038	-0.957805213	2.589434093
C 	1.066235778	-1.452053584	1.610501520
H 	1.800064096	-2.262379718	1.652594094
H 	0.080738211	-1.906625923	1.455440863
O 	-2.134080707	-0.190912025	0.290734162
H 	-0.861674829	-0.675682003	-1.212769720
C 	3.103286411	1.061894658	-0.654292449
C 	2.768331638	0.285841051	0.642883990
C 	3.887943923	-0.761943456	0.864421027
C 	2.759732860	1.272001840	1.834061354
H 	2.513880014	0.768014541	2.776068577
H 	4.096829047	1.520492717	-0.574546149
H 	2.389381225	1.869086147	-0.854111260
H 	3.111732860	0.390747980	-1.523201929
H 	4.869036220	-0.271411524	0.847846870
H 	3.879782504	-1.523771761	0.073463734
H 	3.789003148	-1.270101600	1.829292616
H 	3.750845272	1.728009043	1.951950189
H 	2.038661200	2.083844070	1.683248141
