36

H 	1.426867950	2.121537000	-1.129791530
C 	3.284028880	1.129719350	-0.834897090
C 	1.932121140	1.208794280	-0.825482650
C 	1.044819760	0.217847990	-0.205710450
O 	0.015279680	0.608414700	0.428949990
H 	3.748279640	0.254479830	-0.381077570
H 	5.143507900	2.066383690	2.791608940
H 	4.678842520	0.322370040	3.291460790
H 	3.486560110	1.369584830	2.272365540
C 	4.461902570	1.223716680	2.728508010
N 	1.293935470	-1.117235410	-0.261923990
C 	2.205426220	-1.764298500	-1.218372980
C 	0.452088350	-2.041877400	0.519139180
H 	2.527627860	-1.055080310	-1.980065200
H 	1.670743010	-2.591092570	-1.702005870
H 	3.086339880	-2.173948270	-0.707337150
H 	1.096553560	-2.802308880	0.975412460
H 	-0.273598290	-2.539630120	-0.138326760
H 	-0.085023710	-1.489071700	1.289130150
O 	6.053122350	1.234113920	-0.018291110
H 	5.366040650	1.110604290	0.675497560
C 	5.579548570	2.077464830	-1.003566340
C 	6.514212990	2.914430990	-1.627320100
C 	6.099420230	3.810034090	-2.611126350
C 	4.744852770	3.886166230	-2.978329370
C 	3.819840820	3.042517700	-2.375370930
C 	4.211641430	2.103048470	-1.392007340
H 	7.552826680	2.861163950	-1.309906070
H 	6.829782320	4.462307680	-3.085678010
H 	2.778559650	3.074345120	-2.687494680
H 	4.422860330	4.590811810	-3.741074080
Ti	-1.037155910	2.237114670	1.207188090
Cl	-2.146288080	4.024217250	2.006133770
Cl	-2.149703580	0.713486630	2.431830990
Cl	0.978296850	2.951604960	1.966379030
Cl	-1.650682740	2.603584560	-0.944876800
