36

H 	1.720973732	-1.875733462	-1.369318297
C 	3.547263788	-1.721413696	-0.190181883
C 	2.197304856	-1.236545845	-0.631242964
C 	1.338265708	-0.141413998	-0.273284216
O 	0.172318912	-0.106521230	-0.817910580
H 	4.097846927	-0.943054561	0.342670358
H 	2.768072350	-3.692807768	0.406511912
H 	4.375202078	-3.301716419	1.068214874
H 	2.899360543	-2.543391493	1.736696398
C 	3.388316999	-2.894511128	0.821800292
N 	1.645537409	0.869388220	0.592343669
C 	2.920072451	1.005576300	1.305856352
C 	0.661867629	1.941202137	0.831546923
H 	3.178638338	0.086787836	1.837591553
H 	3.733348927	1.292174583	0.626095135
H 	2.808966294	1.801904232	2.044380701
H 	0.410583149	1.970235918	1.898766619
H 	1.096723496	2.906219987	0.541820063
H 	-0.236170625	1.749495605	0.247877202
O 	5.708479127	-0.074081116	-1.420386868
H 	5.220118268	0.057053786	-0.590810183
C 	5.328478930	-1.278365428	-1.990667791
C 	6.005884933	-1.637305118	-3.164164992
C 	5.683285554	-2.821971973	-3.821896071
C 	4.684566247	-3.660974042	-3.310199110
C 	4.021137064	-3.301189579	-2.138616598
C 	4.328408381	-2.114820303	-1.450049004
H 	6.774719485	-0.969347839	-3.544134819
H 	6.208953930	-3.089067514	-4.735723258
H 	3.240363183	-3.951400086	-1.752024883
H 	4.424053382	-4.584060442	-3.821125698
Ti	-1.385685574	-1.428835992	-1.131518799
Cl	-3.083315024	-2.902164814	-1.321588857
Cl	-2.714582093	0.388424616	-1.021426111
Cl	-0.560466888	-2.470598121	0.738681011
Cl	-0.437033826	-1.949687114	-3.109666007
