25

H 	 -1.300501	 -1.708707	 -0.092034
C 	  0.000000	  0.000000	  0.000000
C 	 -1.228378	 -0.629328	  0.000000
C 	 -2.438073	  0.116307	 -0.000000
O 	 -3.597135	 -0.355242	 -0.155204
H 	  0.014165	  1.078867	  0.158937
H 	 -0.258120	 -0.489303	 -2.712995
H 	  1.241597	  0.605152	 -2.477589
H 	 -0.472960	  1.341800	 -2.447754
C 	  0.167824	  0.467082	 -2.432178
H 	 -2.357890	  1.209687	  0.144250
C 	  3.823718	 -1.890201	  0.305269
C 	  3.681807	 -0.524088	  0.576302
C 	  2.431112	  0.081492	  0.460977
C 	  1.296072	 -0.669793	  0.088668
C 	  1.454411	 -2.045917	 -0.185987
C 	  2.706910	 -2.645708	 -0.079029
H 	  4.545165	  0.066454	  0.873979
H 	  2.320772	  1.144952	  0.665663
H 	  0.601750	 -2.638371	 -0.506874
H 	  2.817134	 -3.704886	 -0.299490
H 	  4.798965	 -2.364142	  0.388863
Zn	 -4.069602	 -2.227819	 -0.929426
Cl	 -5.843177	 -2.987857	  0.003929
Cl	 -2.539164	 -2.675066	 -2.416925
