25

H 	1.504437080	2.589102490	-0.327256840
C 	3.156867540	1.249925250	-0.640595040
C 	1.837820560	1.556078680	-0.374714740
C 	0.878377010	0.548505540	-0.081064460
O 	-0.333656270	0.744369570	0.208652380
H 	3.425355960	0.198668180	-0.755070240
H 	3.467544960	1.896897850	2.050856670
H 	5.081207960	1.190082000	1.433036130
H 	3.666126180	0.052093090	1.869988250
C 	4.032877650	1.053450370	1.671799580
H 	1.221474980	-0.503366550	-0.106504730
C 	6.132426910	4.026784510	-1.963116900
C 	6.324251420	2.649304010	-2.127141240
C 	5.354198280	1.753085990	-1.678066080
C 	4.167020860	2.217842310	-1.071620560
C 	3.988720780	3.609881680	-0.908633780
C 	4.963752490	4.501420710	-1.349700740
H 	7.229374990	2.277107290	-2.601985410
H 	5.504952080	0.681673120	-1.801173540
H 	3.094600410	3.991748470	-0.422316740
H 	4.816010140	5.570532660	-1.214191550
H 	6.889733880	4.727699480	-2.307769200
Zn	-1.329696100	2.572744350	0.426842510
Cl	-3.315708820	2.318669230	-0.345220120
Cl	0.038822950	4.001131690	1.339628710
