25

H 	0.193697160	-1.853610920	-0.245161760
C 	-0.920578160	-0.122928980	0.281837590
C 	0.213683960	-0.778463510	-0.069585170
C 	1.521683940	-0.130598560	-0.228054050
O 	2.570844170	-0.680221780	-0.543137710
H 	-0.893368820	0.898059870	-0.105454810
H 	-0.748844950	-1.036010120	3.155727160
H 	-0.830437970	0.824990710	3.054246520
H 	0.755053890	-0.062911600	2.633478080
C 	-0.307154640	-0.099266210	2.838768690
H 	1.517415350	0.923520600	-0.044438730
C 	-4.704416070	-1.425658280	-1.400122830
C 	-4.296772450	-1.896100920	-0.145615550
C 	-3.076038410	-1.475817060	0.397015070
C 	-2.262948000	-0.585090560	-0.314861580
C 	-2.670591600	-0.114647920	-1.569368850
C 	-3.891325640	-0.534931770	-2.111999480
H 	-4.918970980	-2.577708650	0.399131490
H 	-2.764098630	-1.835812350	1.356997580
H 	-2.048393080	0.566959810	-2.114115900
H 	-4.203265430	-0.174936490	-3.071981980
H 	-5.638554380	-1.747270720	-1.815358290
Zn	4.981562460	1.074220480	-0.875357040
Cl	7.086165550	0.776446580	0.198823010
Cl	5.502524600	2.853788710	-2.369870510
