25

H 	1.449790392	2.549197570	-0.576227514
C 	3.156413473	1.251079062	-0.723794112
C 	1.813610836	1.526372154	-0.562359603
C 	0.882516535	0.497783537	-0.255107066
O 	-0.326281591	0.665427926	0.062025213
H 	3.455242189	0.203002653	-0.764460031
H 	3.177340376	2.073042312	1.920127523
H 	4.875034522	1.389706505	1.528614474
H 	3.459140053	0.231945229	1.900199284
C 	3.812535883	1.231025900	1.670140355
H 	1.250174655	-0.544410473	-0.292206567
C 	6.187621775	4.010383659	-1.942351939
C 	6.404316909	2.630218559	-2.032071565
C 	5.411521197	1.742174099	-1.619764384
C 	4.177733198	2.216374923	-1.125536690
C 	3.974256380	3.610965296	-1.036440073
C 	4.971669000	4.495283488	-1.440287868
H 	7.346090755	2.249092159	-2.420069318
H 	5.581275693	0.668795149	-1.683480068
H 	3.045525423	4.000361098	-0.627990335
H 	4.805389210	5.567022830	-1.360683689
H 	6.962218121	4.705487480	-2.257860096
Zn	-1.194327964	2.444445035	0.702947329
Cl	-3.230002090	2.554515204	0.040909738
Cl	0.348088949	3.506140616	1.820389322
