13
GO R1=4_13 R2=2_8
C       0.34014525       0.47537547       0.08649891
C       1.44917050      -0.52141954       0.43843194
H       1.57655236      -1.21513058      -0.39839383
C      -0.98874204      -0.19287684      -0.15337505
H       0.59146769       1.01229411      -0.83472899
H       0.21538809       1.22990327       0.86933387
H       0.94943070      -0.63506481       2.54523508
Xx       2.29814091      -0.02718339       0.56123200
C       1.12581751      -1.31007000       1.70609085
H       1.96053711      -1.96497403       1.95638596
H       0.23668167      -1.92185618       1.55669255
O      -1.90459286       0.59670365      -0.31517714
Xx      -1.12683552      -1.17226924      -0.19604498
