30

H 	1.901764820	0.932201839	0.001250410
C 	0.000000000	0.000000000	0.000000000
C 	1.348587226	-0.000000000	0.000000000
C 	2.156401069	-1.213054529	-0.000000000
O 	3.415691875	-1.166123780	0.003836182
H 	-0.535975102	-0.951270064	0.000398197
C 	-0.121737893	2.540252757	-0.001809799
C 	-0.899000729	1.209507098	-0.000684664
C 	-1.797297130	1.123746386	1.267090279
C 	-1.798981137	1.122336945	-1.265328117
H 	-2.368146115	0.184919542	-1.286844108
H 	-0.826242634	3.379414532	-0.007586008
H 	0.517748771	2.630749124	-0.886925317
H 	0.510557311	2.636457959	0.887803150
H 	-2.510435028	1.956513548	1.270069578
H 	-1.192973576	1.183430641	2.179029675
H 	-2.367312251	0.186962954	1.289494182
H 	-2.513038963	1.954284095	-1.267676427
H 	-1.196879660	1.182209429	-2.178971070
C 	2.532354956	-3.750557467	-0.005524571
C 	1.526233830	-2.593621142	-0.007012247
H 	3.173269498	-3.715069234	0.880710545
H 	3.182445533	-3.709713377	-0.884860240
H 	1.997135847	-4.706064166	-0.011260807
H 	0.859236193	-2.658360743	0.864811817
H 	0.866991188	-2.653040981	-0.885040961
B 	4.390883971	0.231629354	0.011334257
F 	4.024845452	0.895323284	1.168264849
F 	4.041855897	0.894468550	-1.151123802
F 	5.646097535	-0.304477302	0.021672176
