30

H 	2.434596483	0.699483491	0.546588417
C 	4.244557896	-0.222617782	-0.052978249
C 	2.926959999	-0.214348982	0.234345465
C 	2.074777783	-1.393781598	0.151952081
O 	0.846065974	-1.339409958	0.426436254
H 	4.718784169	-1.154606197	-0.367129868
C 	4.495656517	2.256462259	0.455764406
C 	5.185789114	0.952644222	0.009896360
C 	5.796902564	1.137286028	-1.409255634
C 	6.322010933	0.588808988	1.006646245
H 	6.833913463	-0.334591885	0.709241254
H 	5.228700797	3.070224124	0.487236476
H 	4.058542673	2.157525072	1.455616989
H 	3.698968895	2.546458060	-0.238249378
H 	6.536239819	1.946642968	-1.389319443
H 	5.021033555	1.396275786	-2.138196109
H 	6.300588869	0.223987159	-1.748619235
H 	7.063305832	1.396208706	1.031298262
H 	5.925732065	0.453579524	2.019330994
C 	1.576963743	-3.870202574	-0.295052767
C 	2.620292553	-2.747099189	-0.265263962
H 	0.769403265	-3.640165663	-0.996745464
H 	1.125718889	-4.016304911	0.691126429
H 	2.051499799	-4.807648113	-0.604078404
H 	3.088369201	-2.626054061	-1.252890709
H 	3.442821896	-2.998841626	0.419671967
B 	-0.035754118	0.032908435	0.920303868
F 	0.117127959	0.928609850	-0.122436881
F 	0.579959811	0.426810876	2.094281023
F 	-1.292073498	-0.480598459	1.065392114
