26

C 	1.372041853	-0.000000000	0.000000000
C 	0.000000000	0.000000000	0.000000000
C 	-0.559269536	0.473312468	2.286751934
H 	1.942824424	-0.923773963	0.029051398
C 	2.205799396	1.201524719	-0.000000000
H 	-0.118487369	-0.416620867	2.720387395
H 	-0.498948627	0.947830900	-0.185364589
H 	-1.636105903	0.499978119	2.163349752
H 	-0.020048557	1.410314368	2.361654671
O 	3.431802858	1.194561857	-0.021523877
O 	1.467288827	2.370562472	0.033693670
C 	2.256981190	3.589592715	0.013443337
H 	2.865057163	3.637391430	-0.895699695
H 	2.917229329	3.633525503	0.885774505
H 	1.530057404	4.403788405	0.036446160
C 	-2.537664688	-3.439448870	-0.432637670
C 	-3.026231719	-2.151841741	-0.679703555
C 	-2.189164555	-1.045369724	-0.525383508
C 	-0.845323033	-1.199281757	-0.130833280
C 	-0.369380143	-2.501853919	0.119526395
C 	-1.205990674	-3.607724264	-0.030840224
H 	-4.058859735	-2.010103218	-0.991200525
H 	-2.572917915	-0.044461206	-0.716086663
H 	0.657635625	-2.650594326	0.443229714
H 	-0.820661878	-4.605448117	0.168727254
H 	-3.187700629	-4.303889962	-0.547748103
