26

C 	1.178386542	-0.201433100	1.067933661
C 	1.552072906	-0.194703385	-0.252222413
C 	-0.538064207	-0.041299253	-1.424329721
H 	1.120099931	-1.123057734	1.639952688
C 	0.788922048	0.984309790	1.830261999
H 	-0.950947696	-0.985045211	-1.087906234
H 	1.736456642	0.772132064	-0.713660417
H 	-0.130823190	0.007551669	-2.427965142
H 	-0.882916181	0.873522018	-0.956866994
O 	0.476456286	0.974394853	3.015952974
O 	0.799969146	2.140907481	1.071748891
C 	0.439431936	3.347018134	1.796572216
H 	1.133459595	3.517814409	2.625870955
H 	-0.577362013	3.265959568	2.194540726
H 	0.505464317	4.153656888	1.063881569
C 	3.120217119	-3.528063123	-2.462734239
C 	3.314633346	-2.216227286	-2.908784106
C 	2.790099531	-1.146091459	-2.181838424
C 	2.069023512	-1.359971886	-0.990379918
C 	1.876930215	-2.687023313	-0.556870387
C 	2.397492085	-3.757115413	-1.284465575
H 	3.873471854	-2.027479570	-3.822848990
H 	2.941021406	-0.126517427	-2.532756614
H 	1.308938071	-2.884374929	0.348726764
H 	2.237266063	-4.774776365	-0.934533928
H 	3.523748104	-4.364894001	-3.028359881
