31

H 	1.926158473	0.921367680	0.088210973
C 	0.000000000	0.000000000	0.000000000
C 	1.360919532	0.000000000	0.000000000
C 	2.081255368	-1.262755107	-0.000000000
O 	1.480446319	-2.383501427	0.240931690
H 	-0.468308997	-0.974735393	-0.091046752
O 	-2.788078057	-0.345785223	0.755419439
H 	-2.119655137	-1.056852167	0.916309262
C 	-2.271149724	0.872721153	0.465191126
C 	-3.171901576	1.953945111	0.526173996
C 	-2.737368797	3.250037545	0.284656288
C 	-1.386985866	3.510738068	-0.022356617
C 	-0.493703471	2.455212749	-0.096869806
C 	-0.903061052	1.114985918	0.123150289
H 	-4.206605896	1.742133551	0.782853327
H 	-3.448541921	4.071544399	0.340216690
H 	0.542869849	2.646563951	-0.364745732
H 	-1.054293181	4.527986238	-0.211836669
N 	3.408718113	-1.298885127	-0.238307623
C 	4.185882251	-2.532714714	-0.034362082
C 	4.176570582	-0.117844366	-0.659982816
H 	3.546336433	-3.303042514	0.391904363
H 	5.019845673	-2.321454479	0.645689956
H 	4.587691967	-2.881415562	-0.993643003
H 	5.032910079	-0.457689647	-1.249312034
H 	4.549064651	0.442639404	0.207850279
H 	3.566225039	0.536110944	-1.284781292
Al	0.444196896	-2.952521981	1.641135734
F 	-1.171352543	-2.504324598	1.280426885
F 	1.033113086	-2.086589502	2.959882280
F 	0.654962069	-4.614330076	1.681028931
