31

H 	3.775302980	-1.045172270	1.397961960
C 	4.007700880	0.100873040	-0.392402870
C 	3.492014320	-0.909574100	0.359341460
C 	2.471282850	-1.779110620	-0.205509180
O 	1.828283990	-1.464228810	-1.283213360
H 	3.666256860	0.138479650	-1.421750220
O 	4.414295070	2.501978900	-1.995645340
H 	3.624841620	1.920702870	-2.129863940
C 	5.117092640	2.267716020	-0.859305180
C 	6.072961870	3.245365760	-0.518007680
C 	6.825053500	3.124080100	0.642628190
C 	6.645619490	2.023384570	1.505164350
C 	5.718204410	1.049489680	1.175175290
C 	4.942843380	1.128057810	-0.010744770
H 	6.189590630	4.097911830	-1.182363390
H 	7.556583330	3.891150900	0.889012080
H 	5.595997100	0.183940460	1.822689680
H 	7.238869300	1.935452300	2.412061230
N 	2.162509800	-2.949880750	0.394718730
C 	1.000624170	-3.747170120	-0.035671160
C 	2.914421200	-3.479707100	1.542749440
H 	0.462725820	-3.217285460	-0.819541420
H 	0.341080300	-3.912501530	0.825470760
H 	1.339234320	-4.719040660	-0.415747290
H 	2.839188250	-4.571266160	1.527931010
H 	2.500065990	-3.114857830	2.492634860
H 	3.968654780	-3.206392080	1.472883520
Al	0.964334540	0.046318120	-1.880542910
F 	2.156766850	1.037894090	-2.621558660
F 	0.368947240	0.770799360	-0.483040540
F 	-0.161844000	-0.530225870	-2.979091320
