31

H 	2.034004159	0.935031171	0.101513448
C 	0.000000000	0.000000000	0.000000000
C 	1.494098918	0.000000000	0.000000000
C 	2.299164494	-1.184966187	0.000000000
O 	3.547075905	-1.209015618	0.140488747
H 	-0.356069105	-0.813003702	-0.645086028
H 	-1.674027989	1.310728675	-0.473408413
H 	-0.258466503	1.534617820	-1.529326644
C 	-0.579665784	1.338434900	-0.500042515
H 	-0.244540710	2.171727975	0.127578674
O 	1.615769156	-2.339182291	-0.167572588
C 	2.411674033	-3.565047367	-0.132422723
H 	2.923446451	-3.647976926	0.830391121
H 	3.150537943	-3.554189116	-0.938455487
H 	1.689519646	-4.370430689	-0.267307631
C 	-0.075247635	0.479546946	2.511416528
C 	-0.472747537	0.159235105	3.812083319
C 	-1.237956196	-0.984991763	4.061848011
C 	-1.583196283	-1.789270532	2.978383902
C 	-1.198324504	-1.499205689	1.673725281
C 	-0.446042610	-0.341920978	1.432263988
H 	0.532287096	1.363531312	2.339520299
H 	-0.178833986	0.799014327	4.640522008
H 	-1.557609748	-1.256876010	5.063857590
F 	-2.329206598	-2.916546583	3.204428409
H 	-1.485304292	-2.166414327	0.865538830
Ti	5.138593331	0.210304509	0.605191171
Cl	6.755165350	1.680902720	1.092707204
Cl	3.881658272	0.656618686	2.428108336
Cl	6.429561035	-1.613187796	0.584209304
Cl	4.553157872	1.161101198	-1.352355280
