29

H 	1.973404818	0.978327327	0.021602672
C 	0.000000000	0.000000000	0.000000000
C 	1.492747306	-0.000000000	0.000000000
C 	2.339209563	-1.149101427	0.000000000
O 	3.597991474	-1.027778233	0.191172974
H 	-0.389109992	-0.971053158	0.353570084
H 	-1.646245542	0.315356758	-1.356764055
H 	-0.258539170	-0.517255001	-2.110775814
C 	-0.553272012	0.274788418	-1.414381635
H 	-0.178182534	1.234046647	-1.783753425
C 	2.847912817	-3.631545673	-0.367753503
C 	1.783917481	-2.538820403	-0.218054547
H 	3.479981364	-3.690262412	0.523303981
H 	3.500994537	-3.430273735	-1.223311050
H 	2.365288256	-4.602387975	-0.519648207
H 	1.122884372	-2.755676903	0.637147868
H 	1.115948662	-2.511134266	-1.091587672
O 	-0.484128933	1.044927518	0.852100371
C 	-0.149827322	0.859683106	2.259658646
C 	-0.790897308	1.994814087	3.040660243
H 	0.941206069	0.861298394	2.392750769
H 	-0.539476884	-0.119033821	2.587743748
H 	-0.396922063	2.960769203	2.706624399
H 	-0.568025995	1.881426321	4.108174487
H 	-1.879013323	1.994421927	2.908488031
Al	4.528176330	0.478090171	0.863082967
F 	3.654247861	0.758755808	2.281158343
F 	4.246084296	1.660421956	-0.304163537
F 	6.102492873	-0.052125369	1.040474437
