29

H 	2.027662612	2.124750716	0.042859630
C 	3.884677509	0.983146829	0.359330557
C 	2.416858417	1.109170706	0.118665612
C 	1.490658945	0.035690559	-0.044819418
O 	0.293898637	0.264747796	-0.433529939
H 	4.245460973	-0.013724585	0.050388327
H 	5.308551174	1.144883171	1.970792041
H 	3.753380411	0.424940794	2.471423564
C 	4.221145684	1.196161870	1.850473663
H 	3.870615305	2.179940196	2.176989577
C 	0.727848605	-2.398479194	0.177641976
C 	1.887687610	-1.398047082	0.227174198
H 	0.246446037	-2.394757989	-0.804793500
H 	-0.037018848	-2.151310407	0.921207852
H 	1.098401456	-3.408063387	0.382492131
H 	2.659042776	-1.661418841	-0.515125746
H 	2.404705853	-1.435543097	1.197377874
O 	4.584656311	1.991895880	-0.378764569
C 	4.469707242	1.849546462	-1.825767234
C 	5.319812808	2.934215613	-2.466290398
H 	3.418669565	1.944589337	-2.132942489
H 	4.826250722	0.844739961	-2.109658201
H 	4.957005605	3.926612496	-2.177525639
H 	5.265003981	2.850672830	-3.558138219
H 	6.368231347	2.840646886	-2.160464353
Al	-0.388465911	1.850379041	-1.211025103
F 	0.724409802	2.070354054	-2.462656272
F 	-0.204319680	2.993004824	0.013901528
F 	-1.950958477	1.456757590	-1.652327680
