30

H 	2.183440120	0.664547250	0.339800480
C 	4.104251770	-0.210082090	0.042822940
C 	2.756420380	-0.233042420	0.127315530
C 	1.923516160	-1.386438090	-0.235896370
O 	0.818548640	-1.230403270	-0.870621700
H 	4.626769360	-1.116590510	-0.265025220
C 	6.752751560	3.078928490	0.746041110
C 	7.253169230	1.820020900	0.396766040
C 	6.372594150	0.761153490	0.167375050
C 	4.976836320	0.937539870	0.284548900
C 	4.487382880	2.216573200	0.632240860
C 	5.367516940	3.271666590	0.860359680
H 	8.325711550	1.664854300	0.300418690
H 	6.762706760	-0.217913730	-0.107852090
H 	3.416898780	2.387198170	0.711617950
H 	4.975863240	4.252063010	1.123330880
H 	7.434548890	3.908291340	0.922250820
N 	2.276892290	-2.656667210	0.072453300
C 	1.481889000	-3.780714240	-0.457001790
C 	3.278305080	-3.022579310	1.086962730
H 	0.994228220	-3.480780440	-1.384090480
H 	0.714414660	-4.084195750	0.267638440
H 	2.156446290	-4.623937620	-0.639077760
H 	4.164560160	-3.470582860	0.619306970
H 	2.832538210	-3.761199870	1.764318140
H 	3.575771730	-2.146222470	1.661696760
B 	0.282273820	0.180519490	-1.505043560
F 	1.298159990	0.636135720	-2.340618760
F 	0.061338370	1.023847720	-0.410931720
F 	-0.868394930	-0.192313570	-2.162040980
