35

H 	1.594773667	1.296951926	1.962131711
C 	3.537988505	1.258913662	0.878802642
C 	2.100299589	0.871395085	1.099529278
C 	1.193040048	0.266239604	0.145493492
O 	-0.027781803	0.690469561	0.093239555
H 	4.190509684	0.424755679	1.195077414
H 	4.939583677	2.749791474	1.641886995
H 	3.732147086	2.219850805	2.839785627
C 	3.890931728	2.470445864	1.784336681
H 	3.257447072	3.325412407	1.530373503
N 	1.548514789	-0.705743117	-0.717756736
C 	0.639419873	-1.060174782	-1.821602616
C 	2.741153443	-1.542562997	-0.564564422
H 	0.079897686	-0.177346749	-2.132317335
H 	-0.066138333	-1.841034871	-1.510054984
H 	1.245864012	-1.431950635	-2.652708985
H 	3.457090535	-1.339410313	-1.367632949
H 	2.438705089	-2.596044834	-0.606690081
H 	3.212160717	-1.356082555	0.399481998
O 	6.367928931	0.705201903	-3.182245397
H 	6.883155535	0.179065916	-2.545611285
C 	5.274435446	1.255504736	-2.537694749
C 	4.447603648	2.106221524	-3.281996756
C 	3.337995915	2.688116412	-2.665317016
C 	3.040682241	2.428187000	-1.324082128
C 	3.855253053	1.555794325	-0.586093614
C 	4.976204933	0.977689443	-1.197258403
H 	4.689084711	2.304796785	-4.322981510
H 	2.694320404	3.353977127	-3.234969931
H 	5.620155386	0.305546558	-0.628097139
H 	2.186529556	2.907348856	-0.854684577
Al	-0.689852092	2.415007391	0.033100178
F 	-0.748383623	2.724946850	-1.624420231
F 	0.505679518	3.349173510	0.797474172
F 	-2.164437947	2.368303061	0.828429058
