20

H 	0.210844660	-1.739944990	0.639063050
C 	-0.857879940	-0.148558280	-0.286890000
C 	0.248656140	-0.758251130	0.167958870
C 	1.619143750	-0.230499420	0.116890470
H 	-0.746552460	0.834840720	-0.747321510
O 	2.602817200	-0.777125860	0.525011400
I 	1.878203120	1.840745510	-0.832405150
C 	-3.118064670	0.356175850	0.576909330
C 	-2.272947960	-0.673267440	-0.227446080
C 	-2.380488710	-2.062716510	0.431491910
C 	-2.813114020	-0.739117660	-1.686491630
H 	-2.234633550	-1.450198640	-2.287536920
H 	-4.168437100	0.039566510	0.593844630
H 	-3.067867670	1.352415790	0.121778130
H 	-2.762791640	0.432242790	1.611247920
H 	-3.427638860	-2.387025500	0.447563730
H 	-2.019940600	-2.043776060	1.467123140
H 	-1.804695240	-2.814488700	-0.121407920
H 	-3.860643100	-1.065089990	-1.677111540
H 	-2.763845430	0.242720470	-2.171716040
