32

H 	1.548803500	2.198240160	-0.786893240
C 	3.364909780	1.091768420	-0.814154010
C 	2.000076970	1.214297740	-0.697662140
C 	1.097439310	0.158245190	-0.325138330
O 	-0.113284410	0.409148360	-0.044906760
H 	3.808821850	0.097909120	-0.794052250
H 	3.289102520	2.100821060	1.762375780
H 	5.013733570	1.431185930	1.467073720
H 	3.624949020	0.276315620	1.938696850
C 	3.954085640	1.257645930	1.614140010
C 	0.451448740	-2.293106260	0.083453900
C 	1.565041220	-1.288428740	-0.239210700
H 	-0.332190240	-2.270333450	-0.681036470
H 	-0.019076310	-2.065234640	1.045168540
H 	0.864634070	-3.307025710	0.128890860
H 	2.062153900	-1.546222210	-1.185547040
H 	2.354241900	-1.331492990	0.528112650
O 	7.686795090	2.606488670	-2.610449780
H 	7.839091060	1.644439860	-2.625867890
C 	6.424628100	2.865520300	-2.114051150
C 	6.040657950	4.211845490	-2.022346540
C 	4.775774900	4.532262120	-1.520784050
C 	3.886961330	3.535179170	-1.118594900
C 	4.262977650	2.179048090	-1.216136970
C 	5.546495850	1.856361110	-1.706951550
H 	6.738427990	4.983705620	-2.337349920
H 	4.485625540	5.577203340	-1.436024010
H 	5.850023530	0.810929280	-1.775194580
H 	2.922820080	3.808051450	-0.699120700
Zn	-0.947392250	2.243699920	0.402540030
Cl	-2.935405540	2.352126230	-0.403778540
Cl	0.524100300	3.382333360	1.546248690
