26

H 	0.299502360	-2.028543989	-1.082308160
C 	-0.794561310	-0.226485020	-0.634344660
C 	0.336106950	-0.949078040	-0.939839630
C 	1.652575589	-0.423300740	-0.986297610
O 	2.706868279	-1.099038800	-1.012028840
H 	-0.687410080	0.849449640	-0.510607730
H 	-1.341633629	-1.087048440	2.068973079
H 	-0.692688660	0.663423410	2.134519139
H 	0.497037150	-0.777833240	1.946656839
C 	-0.516843910	-0.392785430	1.960767509
Br	1.903207699	1.517863159	-0.989626150
C 	-4.835936318	-1.603081219	-0.670317350
C 	-3.793624708	-2.524381839	-0.855463920
C 	-2.468375839	-2.099710629	-0.840419760
C 	-2.158062669	-0.733713260	-0.641011720
C 	-3.219380329	0.182424170	-0.455068670
C 	-4.544764448	-0.247475730	-0.470074150
H 	-4.020143928	-3.576881618	-1.010058790
H 	-1.672496609	-2.826657639	-0.979035160
H 	-2.990081219	1.234940229	-0.297411050
H 	-5.350583268	0.469354960	-0.328412820
H 	-5.869566207	-1.942522129	-0.682463830
Al	2.916381469	-2.829802349	-0.250001510
F 	2.374726829	-2.504766719	1.316376409
F 	4.531230318	-3.202382429	-0.448878200
F 	1.802008639	-3.758314718	-1.116780370
