26

H 	0.305900940	-2.025499265	-1.037998880
C 	-0.793432862	-0.227487807	-0.591064112
C 	0.343036830	-0.950548117	-0.866771656
C 	1.662257909	-0.430869230	-0.879676691
O 	2.709730220	-1.110181057	-0.950985684
H 	-0.692475416	0.849546458	-0.478096747
H 	-1.261357425	-1.054379065	2.124864493
H 	-0.911887583	0.782322292	2.142304496
H 	0.501420469	-0.444556410	2.047096367
C 	-0.561149039	-0.235581412	2.015156420
Br	1.925554391	1.509898775	-0.752651622
C 	-4.822154675	-1.627733271	-0.703689788
C 	-3.770606383	-2.550516704	-0.808519554
C 	-2.448796247	-2.117047992	-0.770731640
C 	-2.152775802	-0.741815035	-0.625172050
C 	-3.222892991	0.174839860	-0.515928457
C 	-4.544745124	-0.262923725	-0.559164794
H 	-3.987140058	-3.610391815	-0.918304527
H 	-1.645020192	-2.844164187	-0.846224204
H 	-3.002776329	1.234255308	-0.399280305
H 	-5.357822931	0.454355786	-0.477761513
H 	-5.852872565	-1.973412239	-0.732841420
Al	2.918100321	-2.920953562	-0.390778161
F 	2.488384719	-2.763338693	1.229465588
F 	4.503912058	-3.300671581	-0.743264932
F 	1.733099906	-3.729495730	-1.283137726
