26

H 	0.305900940	-2.025499264	-1.037998880
C 	-0.793432861	-0.227487807	-0.591064112
C 	0.343036830	-0.950548117	-0.866771655
C 	1.662257908	-0.430869230	-0.879676690
O 	2.709730219	-1.110181057	-0.950985684
H 	-0.692475416	0.849546457	-0.478096747
H 	-1.261357425	-1.054379065	2.124864492
H 	-0.911887583	0.782322292	2.142304495
H 	0.501420469	-0.444556410	2.047096367
C 	-0.561149039	-0.235581412	2.015156419
Br	1.925554390	1.509898774	-0.752651622
C 	-4.822154673	-1.627733271	-0.703689787
C 	-3.770606381	-2.550516703	-0.808519554
C 	-2.448796246	-2.117047991	-0.770731639
C 	-2.152775801	-0.741815035	-0.625172050
C 	-3.222892990	0.174839860	-0.515928457
C 	-4.544745122	-0.262923725	-0.559164793
H 	-3.987140056	-3.610391813	-0.918304527
H 	-1.645020191	-2.844164186	-0.846224204
H 	-3.002776328	1.234255308	-0.399280305
H 	-5.357822928	0.454355785	-0.477761513
H 	-5.852872562	-1.973412238	-0.732841420
Al	2.918100320	-2.920953561	-0.390778161
F 	2.488384718	-2.763338691	1.229465587
F 	4.503912056	-3.300671579	-0.743264931
F 	1.733099905	-3.729495728	-1.283137726
