8
C3H4O optimized with ADF in AMS.
 C       -2.96244684335171      -1.81186116438956      -0.87061697408379
 C       -2.03187701739866      -1.12575655032669      -0.19318690772765
 C       -1.88908190276137       0.33992597488707      -0.31569032822972
 O       -1.05827549007693       1.00780885483493       0.27667645852510
 H       -2.62044561202558       0.81592182138234      -1.01475391905909
 H       -3.66264397770119      -1.31443413715327      -1.54062396631026
 H       -1.33584415293841      -1.62422512243266       0.47984452883632
 H       -3.06069656871743      -2.89110002484890      -0.77863889985088
