31

H 	1.476782864	2.120409141	-0.917308299
C 	3.359320262	1.127992619	-0.703863103
C 	1.985966577	1.180261860	-0.710693955
C 	1.118582892	0.078156170	-0.371638553
O 	-0.103272792	0.284733275	-0.122932395
H 	3.845339084	0.168448642	-0.559527964
H 	3.763891187	2.536610856	1.646068845
H 	4.746396082	0.952509718	1.727575544
H 	2.913504940	0.956481831	2.120830866
C 	3.786104397	1.456066540	1.716379977
C 	0.579684303	-2.395430566	0.023711610
C 	1.650395370	-1.342447179	-0.282921141
H 	-0.189062614	-2.412280430	-0.755572298
H 	0.082382435	-2.184301471	0.975262631
H 	1.037772845	-3.388755761	0.081079463
H 	2.177584632	-1.574953144	-1.218834457
H 	2.425873639	-1.347264290	0.499522671
C 	3.771077549	3.494689361	-1.513809848
C 	4.650332846	4.492699151	-1.924247334
C 	6.029233279	4.242888958	-1.974060322
C 	6.527578102	2.988967078	-1.608721318
C 	5.629387949	2.012189851	-1.200837147
C 	4.237677593	2.214537450	-1.137938096
H 	2.705916839	3.705397610	-1.481607552
H 	4.263149363	5.467807945	-2.207634064
H 	6.716611208	5.021761228	-2.294510160
H 	7.589789623	2.762380976	-1.634207222
F 	6.130454922	0.788542941	-0.832234634
Zn	-0.687015963	2.184318673	0.526644681
Cl	-1.243512613	3.443523828	-1.131964340
Cl	-0.179267572	2.135018828	2.625734465
