24

C 	 -0.210269	 -0.018828	  0.957115
C 	  0.219790	  0.046826	 -0.337841
C 	 -1.989215	  0.229488	 -1.468614
H 	 -0.254357	 -0.961110	  1.496067
C 	 -0.679998	  1.115522	  1.730222
H 	 -2.273367	 -0.814325	 -1.406321
H 	  0.342180	  1.033449	 -0.779517
H 	 -1.650426	  0.619672	 -2.421325
H 	 -2.411866	  0.923377	 -0.752566
O 	 -1.056560	  1.145099	  2.871409
F 	 -0.675101	  2.315835	  0.982812
C 	  2.435937	 -0.982923	 -0.604299
C 	  0.944429	 -1.087079	 -1.051564
C 	  0.886940	 -0.904744	 -2.585905
C 	  0.397718	 -2.480461	 -0.673224
H 	 -0.665847	 -2.568583	 -0.921077
H 	  3.028682	 -1.751451	 -1.115314
H 	  2.529344	 -1.127274	  0.477201
H 	  2.856768	 -0.002371	 -0.856341
H 	  1.562391	 -1.617008	 -3.073720
H 	  1.197135	  0.107241	 -2.874116
H 	 -0.121492	 -1.077308	 -2.973649
H 	  0.941335	 -3.254963	 -1.226548
H 	  0.519790	 -2.692677	  0.394305
