24

C 	0.678544604	-0.313612639	0.969185800
C 	1.108604292	-0.247958284	-0.325769303
C 	-1.100401318	-0.065296176	-1.456542258
H 	0.634457414	-1.255894246	1.508138226
C 	0.208816247	0.820737710	1.742292767
H 	-1.384552967	-1.109109756	-1.394249958
H 	1.230993857	0.738664957	-0.767445432
H 	-0.761611585	0.324887872	-2.409253599
H 	-1.523051737	0.628593079	-0.740494519
O 	-0.167745630	0.850315038	2.883480579
F 	0.213713167	2.021050255	0.994883580
C 	3.324751308	-1.277707241	-0.592227306
C 	1.833242629	-1.381863321	-1.039492730
C 	1.775753725	-1.199528393	-2.573833263
C 	1.286531799	-2.775245102	-0.661152397
H 	0.222967157	-2.863367641	-0.909005780
H 	3.917495909	-2.046235850	-1.103243067
H 	3.418157858	-1.422057955	0.489272727
H 	3.745581766	-0.297154942	-0.844269319
H 	2.451205012	-1.911792788	-3.061648733
H 	2.085949197	-0.187543633	-2.862045134
H 	0.767322566	-1.372092284	-2.961577976
H 	1.830149391	-3.549746984	-1.214477209
H 	1.408604000	-2.987461626	0.406376376
