24

C 	0.689260756	-0.299923842	0.968703820
C 	1.112039851	-0.243605523	-0.329004668
C 	-1.131920098	-0.099569995	-1.425985244
H 	0.660080883	-1.237443584	1.518415161
C 	0.214020293	0.839641774	1.733976437
H 	-1.434951039	-1.119537689	-1.221189375
H 	1.216561447	0.740214043	-0.782166003
H 	-0.840077990	0.164196239	-2.436270661
H 	-1.487075304	0.688415930	-0.773122125
O 	-0.129062997	0.883100306	2.885542451
F 	0.167981918	2.029150540	0.961744817
C 	3.327068748	-1.299091574	-0.572182890
C 	1.839475099	-1.376565984	-1.044188011
C 	1.808704768	-1.169020577	-2.576954985
C 	1.274513478	-2.771930878	-0.698817233
H 	0.218699751	-2.852520382	-0.981323551
H 	3.917892447	-2.063590902	-1.092504157
H 	3.402328524	-1.469821567	0.507240212
H 	3.762899720	-0.317923296	-0.795941838
H 	2.483894169	-1.881694751	-3.065611434
H 	2.134602087	-0.155848408	-2.844150673
H 	0.804102957	-1.325223848	-2.982510333
H 	1.831142522	-3.542055649	-1.246169318
H 	1.363296660	-2.998770337	0.369371651
