25

H 	-1.314448287	-1.675944789	-0.004531396
C 	0.000000000	0.000000000	0.000000000
C 	-1.220514003	-0.596146405	0.000000000
C 	-2.465722244	0.142832911	-0.000000000
O 	-3.588013167	-0.439779878	-0.012425349
H 	0.055940862	1.088434486	0.000744961
C 	2.464162038	0.111445955	-0.031021420
C 	3.724509344	-0.486946253	-0.042613393
C 	3.843264612	-1.879771692	-0.028021779
C 	2.674582084	-2.645067590	-0.002311855
C 	1.409219319	-2.082931515	0.009355198
C 	1.289570953	-0.673755889	-0.006248563
H 	2.377733352	1.195462442	-0.042067122
H 	4.620128708	0.128617607	-0.062297118
H 	4.810594729	-2.374315448	-0.035685559
F 	2.789683543	-4.005394177	0.013028847
H 	0.540437961	-2.733499909	0.030144418
C 	-2.501134636	1.653089750	0.013639300
H 	-1.992278710	2.058408293	-0.869321101
H 	-1.989649275	2.043725328	0.901465942
H 	-3.540613088	1.985696570	0.017243513
B 	-3.843726132	-2.118568718	-0.033049075
F 	-3.215243403	-2.545835484	-1.190707321
F 	-5.205413277	-2.200152339	-0.046475335
F 	-3.236346540	-2.570615759	1.126715073
