25

H 	2.363614136	0.796727070	-0.258517409
C 	4.196304027	-0.165170094	0.244063309
C 	2.863871702	-0.134259446	-0.018069476
C 	2.021588301	-1.311778990	0.007236424
O 	0.780838834	-1.250521807	-0.229231935
H 	4.664813301	-1.119013619	0.485933430
C 	6.461403300	0.757389287	0.566067268
C 	7.369168375	1.816783788	0.584200116
C 	6.944655419	3.113589148	0.280287224
C 	5.598977235	3.313734310	-0.037910515
C 	4.672774531	2.284795312	-0.064539468
C 	5.102566306	0.973103996	0.243811104
H 	6.797276417	-0.249467321	0.802948440
H 	8.411593865	1.637301644	0.834351307
H 	7.628067173	3.958149757	0.285343727
F 	5.183775156	4.579747949	-0.335885021
H 	3.641387126	2.506606683	-0.320453928
C 	2.571822389	-2.683921613	0.318335859
H 	3.022183174	-2.700838031	1.318198620
H 	3.350500776	-2.960667464	-0.402442386
H 	1.760254686	-3.412320414	0.274190733
B 	-0.098632473	0.153709778	-0.601804480
F 	0.088878489	0.975939848	0.496602274
F 	-1.363718602	-0.333413235	-0.754435693
F 	0.494217255	0.630758643	-1.759069772
