8
C3H4O optimized with DFTB in AMS.
C        0.30739334441652       0.44257598226255       0.00000000000000
C        0.97709497649282      -0.70675747992344       0.00000000000000
H        0.46764783487636      -1.66272434104243       0.00000000000000
C       -1.16570442076473       0.49420651780813       0.00000000000000
H        0.81671182217242       1.40059056702001       0.00000000000000
O       -1.79513711472695       1.51853143769268       0.00000000000000
H        2.05806522070727      -0.74751784137034       0.00000000000000
H       -1.65743641317371      -0.50270968244716       0.00000000000000
