30

H 	2.013247168	0.947100827	0.076352546
C 	0.000000000	0.000000000	0.000000000
C 	1.485675346	0.000000000	0.000000000
C 	2.340362143	-1.156990242	0.000000000
O 	3.559851231	-1.136012795	0.266850423
H 	-0.351103884	-0.997413241	-0.289986362
H 	-1.608821065	1.031050804	-1.081507191
H 	-0.141505885	0.771136702	-2.036132693
C 	-0.515660242	1.026874352	-1.038780917
H 	-0.174871651	2.040977081	-0.803631770
O 	1.703889880	-2.325539452	-0.317116502
C 	2.531665393	-3.522840662	-0.273355790
H 	2.961514428	-3.648862759	0.724846952
H 	3.339896533	-3.453021187	-1.007792143
H 	1.855278590	-4.343652597	-0.515863892
C 	-0.012923869	-0.866094874	2.402677326
C 	-0.571297266	0.237013485	1.474411295
C 	-2.110044202	0.121421751	1.438629389
C 	-0.164582998	1.618891654	2.028333568
H 	-0.552602157	2.436536733	1.411097462
H 	-0.464655587	-0.784458891	3.398377190
H 	1.072299795	-0.777634890	2.524198352
H 	-0.235249070	-1.865294842	2.008695661
H 	-2.508091014	0.170902528	2.459709027
H 	-2.426503655	-0.833686688	1.000434288
H 	-2.572624772	0.932446928	0.866782507
H 	-0.573190664	1.746296508	3.038089963
H 	0.923540325	1.721924412	2.099482924
I 	4.221805307	0.696073069	2.197958140
I 	4.766215457	2.465614898	4.269258246
