30

H 	1.577445715	1.869814893	1.005894088
C 	3.566147419	1.140970263	0.320441768
C 	2.105196040	1.027948511	0.565550693
C 	1.258737312	-0.073727600	0.192813108
O 	0.011190522	-0.030956352	0.168308703
H 	3.958902165	0.147134519	0.075016778
H 	5.349941888	1.714014905	1.465311156
H 	4.079060365	0.951858558	2.432708120
C 	4.267192149	1.645804153	1.606179394
H 	3.894626072	2.631386958	1.905607819
O 	1.936151562	-1.211060419	-0.151789657
C 	1.108000350	-2.327662294	-0.585406201
H 	0.503375888	-2.036562883	-1.449553683
H 	0.446956456	-2.647906914	0.225749423
H 	1.812917749	-3.117746840	-0.847893134
C 	3.138036927	1.417111882	-2.182279332
C 	3.861409284	2.041850764	-0.967067215
C 	5.380448160	2.039685765	-1.240746102
C 	3.368030479	3.491406567	-0.774196838
H 	3.865920649	3.983488438	0.068443990
H 	3.401852898	1.960242350	-3.097459438
H 	2.049262985	1.466979442	-2.070980366
H 	3.423032581	0.366380415	-2.315664061
H 	5.586696984	2.561024999	-2.183698946
H 	5.766269251	1.016277814	-1.331144731
H 	5.943381839	2.551366295	-0.453319797
H 	3.587124518	4.078414788	-1.674318690
H 	2.285628250	3.532072988	-0.611586867
I 	-0.980947473	2.405086015	-0.609674979
I 	-1.883280985	4.855365719	-1.558288934
