22

C 	0.172038759	1.484521158	0.000000000
C 	0.000000000	0.000000000	0.000000000
H 	-1.075049791	-0.212239352	0.039727214
C 	-0.908884420	2.421125397	0.000000000
H 	1.178539145	1.901563343	-0.010115055
O 	-0.760397431	3.651869854	0.008676822
C 	0.643901123	-0.654531156	1.243460689
H 	0.503289942	-1.739595567	1.212842746
H 	0.178619021	-0.271200280	2.156832759
H 	1.716351817	-0.451137703	1.304514364
H 	-1.933686777	1.983203195	0.000024066
C 	1.403328030	-1.635760928	-3.781434832
C 	2.321294402	-1.140707188	-2.854018327
C 	1.881960866	-0.614036638	-1.640167398
C 	0.515782400	-0.576521796	-1.325082950
C 	-0.395629597	-1.067977892	-2.269263808
C 	0.041442970	-1.597582566	-3.483749663
H 	3.385881910	-1.163121961	-3.075858723
H 	2.618106977	-0.233517322	-0.937290712
H 	-1.461306836	-1.042703789	-2.051627593
H 	-0.685294568	-1.980164822	-4.196857876
H 	1.747092200	-2.045715023	-4.728000196
