22

C 	0.136776487	0.866420531	0.277819976
C 	1.665536576	-1.454384248	0.652775654
H 	0.604872987	-3.116857578	0.016032436
C 	-2.351834082	0.909723605	-0.778767474
H 	0.928817398	2.686651977	0.831864999
O 	-3.587161864	2.829978539	-1.097764526
C 	2.566217842	-1.835995542	3.398468345
H 	3.733700090	-3.537873441	3.537310303
H 	0.960122601	-2.047898091	4.683657854
H 	3.696563192	-0.229715108	4.047679975
H 	-3.119366832	-0.886523948	-1.301166067
C 	8.314996563	-0.981529494	-4.127656870
C 	7.694870293	1.027798871	-2.520829511
C 	5.549635131	0.875247442	-0.978576154
C 	4.024526238	-1.286632353	-1.043150175
C 	4.644652489	-3.295960737	-2.649977514
C 	6.789887671	-3.143409288	-4.192230871
H 	8.861924405	2.682127085	-2.471415743
H 	5.075097953	2.412839222	0.251011093
H 	3.477598396	-4.950288951	-2.699391282
H 	7.264424867	-4.681001088	-5.421818119
H 	9.956587872	-0.864793061	-5.307830368
