22

C 	0.020428695	0.473719793	0.181768586
C 	0.908484330	-0.724371754	0.315022227
H 	0.341788162	-1.604750254	-0.012499974
C 	-1.313366073	0.457016282	-0.340940132
H 	0.386239134	1.443779734	0.516122371
O 	-2.041564428	1.460492600	-0.418865129
C 	1.317208979	-0.959960204	1.793263572
H 	1.952400337	-1.848550074	1.867389637
H 	0.433989035	-1.111775263	2.421701340
H 	1.878921860	-0.110032232	2.191738418
H 	-1.689283275	-0.534492363	-0.684805691
C 	4.465382895	-0.559247810	-2.192507875
C 	4.145847406	0.517150280	-1.365205744
C 	3.002110834	0.478801428	-0.569196321
C 	2.149154881	-0.633495164	-0.587973934
C 	2.477175604	-1.704070950	-1.429464308
C 	3.626709530	-1.672197623	-2.220004635
H 	4.789333113	1.393804369	-1.338888247
H 	2.779556489	1.330884489	0.067309024
H 	1.833631130	-2.580982154	-1.462555002
H 	3.865448682	-2.520292083	-2.858241587
H 	5.358016233	-0.528302775	-2.813062078
