22

C 	0.038604638	0.895200669	0.343492846
C 	1.716786571	-1.368864227	0.595305732
H 	0.645886018	-3.032538478	-0.023621528
C 	-2.481902180	0.863635607	-0.644283474
H 	0.729886182	2.728348282	0.975329928
O 	-3.857997635	2.759931020	-0.791540377
C 	2.489164219	-1.814061876	3.388777020
H 	3.689501923	-3.493253368	3.528854983
H 	0.820120417	-2.100950760	4.576352289
H 	3.550647724	-0.207930783	4.141785347
H 	-3.192282737	-1.010044183	-1.294095205
C 	8.438350713	-1.056825198	-4.143239409
C 	7.834516152	0.977272394	-2.579864961
C 	5.673167273	0.904803567	-1.075625157
C 	4.061314124	-1.197132361	-1.111109704
C 	4.681183454	-3.220227392	-2.701296046
C 	6.853487746	-3.159995534	-4.195200755
H 	9.050527902	2.633908529	-2.530132098
H 	5.252600511	2.515007187	0.127195622
H 	3.465060649	-4.877349404	-2.763828397
H 	7.304639358	-4.762661790	-5.401293797
H 	10.125183251	-0.998347556	-5.315916900
