31

H 	2.533539060	0.712355400	0.442436000
C 	4.353208240	-0.229406350	-0.092882950
C 	3.025597350	-0.206576030	0.141280010
C 	2.150273970	-1.371059920	0.032077000
O 	0.929303710	-1.276743460	0.291432030
H 	4.824914560	-1.168625440	-0.390710260
C 	4.620237160	2.242760170	0.443156810
C 	5.309873980	0.932474680	0.013884100
C 	5.979700490	1.118649220	-1.379007790
C 	6.403340530	0.544992240	1.051617160
H 	6.916849550	-0.380339590	0.762052950
H 	5.362467930	3.046447660	0.511764920
H 	4.141742000	2.141223380	1.424069250
H 	3.857056250	2.550489230	-0.281152100
H 	6.729063720	1.917751120	-1.323619240
H 	5.236713370	1.393148740	-2.136559190
H 	6.484065200	0.200315050	-1.704334850
H 	7.151688530	1.344625040	1.114193620
H 	5.966439940	0.401988450	2.046737160
C 	1.623781210	-3.836995620	-0.425017110
C 	2.684137550	-2.729198880	-0.397429650
H 	0.815919980	-3.592111800	-1.121961240
H 	1.175127650	-3.977085520	0.563762940
H 	2.081438160	-4.782085190	-0.738207740
H 	3.145614980	-2.605071810	-1.388656580
H 	3.508460510	-2.995102720	0.280790760
Ti	-0.568487010	0.192055920	0.931562380
Cl	-2.029617840	1.765722890	1.573278550
Cl	0.774737870	0.401622720	2.735276190
Cl	-0.054330020	1.170650080	-1.037552460
Cl	-1.979042330	-1.534880070	0.902631800
