24

H 	0.54670500	-1.18728400	-0.09361300
C 	-0.91702500	0.11876100	0.92183400
C 	-0.14359800	-0.37431200	-0.33103700
C 	0.60166300	0.72226200	-1.04513800
O 	1.77151000	0.69670600	-1.37337100
H 	-1.49791800	0.99710400	0.61194900
H 	-0.87509100	-0.75788600	-1.05845000
H 	0.68088800	-0.24147800	2.38438300
C 	0.03617200	0.57346300	2.04238900
H 	0.68629300	1.38713800	1.70416000
H 	-0.53274300	0.93470500	2.90398700
C 	-3.83646700	-2.81182200	2.25536800
C 	-4.24637800	-1.57282800	1.76499100
C 	-3.29903400	-0.64020100	1.33926200
C 	-1.92719900	-0.91995200	1.39358700
C 	-1.53081300	-2.17047500	1.89080300
C 	-2.47348600	-3.10605100	2.31583900
H 	-5.30499000	-1.32829600	1.71252000
H 	-3.63489000	0.32327100	0.96008800
H 	-0.47625900	-2.42696800	1.95116600
H 	-2.14054400	-4.06927300	2.69602900
H 	-4.57074300	-3.54181300	2.58750100
H 	-0.01310800	1.62113800	-1.29516600
I 	4.06486700	-1.46274500	-1.01057400
