29

H 	  2.001297	  0.952523	  0.013588
C 	  0.000000	  0.000000	  0.000000
C 	  1.478259	 -0.000000	  0.000000
C 	  2.261789	 -1.177723	  0.000000
O 	  3.523408	 -1.210563	  0.082593
H 	 -0.357309	 -1.027587	 -0.161019
H 	 -1.604829	  0.855120	 -1.221292
H 	 -0.111828	  0.532960	 -2.117570
C 	 -0.513382	  0.890101	 -1.163584
H 	 -0.201284	  1.931563	 -1.037336
H 	  1.739734	 -2.145643	 -0.071851
C 	 -0.045943	 -0.581342	  2.483450
C 	 -0.571128	  0.427171	  1.436349
C 	 -2.111106	  0.355412	  1.398621
C 	 -0.120508	  1.850437	  1.824640
H 	 -0.463731	  2.599707	  1.103055
H 	 -0.480453	 -0.363624	  3.466023
H 	  1.044116	 -0.528400	  2.582149
H 	 -0.320298	 -1.610074	  2.216828
H 	 -2.508616	  0.523450	  2.407105
H 	 -2.457987	 -0.629852	  1.062015
H 	 -2.546043	  1.117203	  0.743696
H 	 -0.547026	  2.114579	  2.799742
H 	  0.968692	  1.923293	  1.912627
Ti	  5.112824	  0.288445	  0.366238
Cl	  6.650902	  1.885564	  0.673169
Cl	  6.477588	 -1.465975	  0.391679
Cl	  4.403393	  1.035395	 -1.639592
Cl	  3.936267	  0.767582	  2.242872
