29

H 	1.591374463	2.361113341	0.494345313
C 	3.520584514	1.296814949	0.253326073
C 	2.046230039	1.393395695	0.300225702
C 	1.181873460	0.293722650	0.089135246
O 	-0.080204945	0.360746284	0.041706083
H 	3.807506707	0.236785161	0.193791927
H 	5.203241364	1.780823885	1.569632154
H 	3.707562848	1.382465070	2.430103038
C 	4.116105438	1.897976243	1.554759273
H 	3.875874374	2.961585621	1.649687354
H 	1.635709005	-0.700747968	-0.050986450
C 	3.481000782	1.227503174	-2.296423112
C 	4.094541163	1.967140011	-1.085703318
C 	5.626077122	1.788781332	-1.111993542
C 	3.738333846	3.465841147	-1.166483784
H 	4.146315134	4.029805239	-0.320677218
H 	3.912086501	1.610393915	-3.228737803
H 	2.395778696	1.370398571	-2.347880818
H 	3.686998292	0.150437274	-2.250147818
H 	6.016299084	2.130777975	-2.078459220
H 	5.908722153	0.735313892	-0.990781028
H 	6.125216976	2.372457139	-0.331861868
H 	4.164849523	3.893110110	-2.081927893
H 	2.655561844	3.625975783	-1.203489508
Ti	-1.564994610	1.986720967	0.114700335
Cl	-2.992093389	3.709919730	0.182919756
Cl	-3.050096388	0.366618178	-0.218399042
Cl	-0.768930365	2.265014157	2.205971743
Cl	-0.391437241	2.757230197	-1.664257766
