32

H 	1.911421785	0.912498668	0.183448674
C 	0.000000000	0.000000000	0.000000000
C 	1.352195623	0.000000000	-0.000000000
C 	2.194722494	-1.197693869	-0.000000000
O 	3.225103883	-1.254166839	0.757798884
H 	-0.523002698	-0.951369123	-0.102112105
O 	-3.425209336	4.443534254	0.647993860
H 	-4.359134986	4.185384670	0.547656888
C 	-2.624367208	3.338516991	0.488306089
C 	-1.237088827	3.526549564	0.623507902
C 	-0.375940015	2.450579837	0.470957019
C 	-0.865716903	1.155293581	0.177133933
C 	-2.262141050	0.989502372	0.062481038
C 	-3.136521049	2.063392379	0.209782278
H 	-0.860341434	4.518848099	0.857121603
H 	0.690891792	2.612268430	0.599159788
H 	-2.665048159	0.000445059	-0.147640548
H 	-4.211412178	1.914181077	0.114866241
N 	1.930418023	-2.271298749	-0.782422676
C 	2.712324085	-3.507227795	-0.608088655
C 	1.042013821	-2.249182478	-1.951974583
H 	3.142216704	-3.528749553	0.392289418
H 	3.523978322	-3.555950997	-1.346018008
H 	2.045392460	-4.363573477	-0.754094621
H 	0.148171737	-2.860467020	-1.773877848
H 	1.581136850	-2.666103451	-2.811510688
H 	0.742552901	-1.227293803	-2.180253671
Sn	3.556327344	-0.434329111	2.854899614
Cl	3.800937156	1.716366082	1.822487588
Cl	5.385199069	-1.943198385	2.756341233
Cl	3.932911097	0.356625368	5.093774525
Cl	1.381938493	-1.335706480	3.288649772
