24

H 	-1.383020601	-1.633254522	-0.004942574
C 	0.000000000	0.000000000	0.000000000
C 	-1.231132851	-0.560941706	-0.000000000
C 	-2.475055884	0.219130161	-0.000000000
O 	-3.606002833	-0.279691835	-0.021186843
H 	0.052072829	1.088356269	-0.001029604
C 	2.463810350	0.152607903	-0.029621934
C 	3.744347781	-0.393705680	-0.038054837
C 	3.907524173	-1.784463892	-0.017233983
C 	2.785861940	-2.619032398	0.011656269
C 	1.519102241	-2.049869554	0.017358927
C 	1.300823400	-0.655572402	-0.003520112
H 	2.334989201	1.232787504	-0.045464714
H 	4.613243597	0.258896068	-0.059673984
H 	4.902693323	-2.222136120	-0.023029024
H 	2.877141341	-3.701590766	0.028554096
F 	0.449388977	-2.898992503	0.044964061
O 	-2.297655790	1.568806349	0.027599111
C 	-3.520323808	2.364477526	0.027667402
H 	-4.123713844	2.129537231	0.909394794
H 	-4.103073816	2.161300765	-0.875506704
H 	-3.182022801	3.401186992	0.050076691
I 	-4.110379192	-2.982390372	-0.170142744
I 	-4.644235009	-5.703444265	-0.333533926
