24

H 	2.365500360	0.570890920	-0.605943950
C 	4.186115770	-0.232605500	0.177825840
C 	2.897406880	-0.295176430	-0.230350810
C 	2.082159210	-1.515204970	-0.156060160
O 	0.864771290	-1.547688700	-0.372593810
H 	4.630420980	-1.144404570	0.576931190
C 	6.342417680	0.783492350	0.817836730
C 	7.254229370	1.833872680	0.881592650
C 	6.932549210	3.068427370	0.303694100
C 	5.698440970	3.242927860	-0.332590320
C 	4.803289450	2.181562020	-0.379735870
C 	5.079418280	0.918725580	0.188916760
H 	6.590328660	-0.178183430	1.263609880
H 	8.211782150	1.692225970	1.376995050
H 	7.637062660	3.895854380	0.345407780
H 	5.421479720	4.187566800	-0.793364930
F 	3.610077810	2.389319510	-1.020619970
O 	2.778509430	-2.638309080	0.175196630
C 	1.986467050	-3.858238000	0.299824080
H 	1.510011770	-4.097221100	-0.655524250
H 	1.218261610	-3.731617720	1.068318760
H 	2.702233080	-4.630806380	0.584054080
I 	-0.676187900	0.753822400	-0.525668670
I 	-2.206163450	3.066995300	-0.604978100
