24

H 	2.303581643	0.635516335	-0.330733467
C 	4.185366051	-0.216841740	0.228430104
C 	2.863254688	-0.250244944	-0.056612814
C 	2.058452308	-1.477686025	-0.017393562
O 	0.845937876	-1.519376160	-0.254846616
H 	4.660840666	-1.158824644	0.500136024
C 	6.442521901	0.714713306	0.591721635
C 	7.370448871	1.752186398	0.621836079
C 	6.972418459	3.051590076	0.283619703
C 	5.646431798	3.302975610	-0.082481501
C 	4.739256499	2.251652119	-0.102751989
C 	5.089394685	0.925375245	0.229722130
H 	6.749871096	-0.295466796	0.853840858
H 	8.400192141	1.551912389	0.906187073
H 	7.688550100	3.869347885	0.303109101
H 	5.304796493	4.298906318	-0.350730320
F 	3.453714278	2.538542622	-0.464875353
O 	2.755099490	-2.602119895	0.305390411
C 	1.975469466	-3.834238159	0.350902143
H 	1.529998857	-4.035605043	-0.627733125
H 	1.182949553	-3.752105069	1.100414101
H 	2.691503570	-4.611072029	0.622085777
I 	-0.702291336	0.683900289	-0.829060816
I 	-2.287177112	2.893189172	-1.397402885
