27

H 	  2.024755	  0.951623	  0.009990
C 	  0.000000	  0.000000	  0.000000
C 	  1.494390	  0.000000	  0.000000
C 	  2.300128	 -1.181900	  0.000000
O 	  3.539999	 -1.175673	 -0.010311
H 	 -0.334710	 -1.043471	 -0.039272
H 	 -1.669927	  0.696985	 -1.214261
H 	 -0.247043	  0.208753	 -2.157606
C 	 -0.575962	  0.714173	 -1.244358
H 	 -0.252615	  1.756767	 -1.304469
H 	  1.747106	 -2.149248	  0.001261
C 	 -1.466638	  1.586684	  3.777718
C 	 -1.592682	  0.230506	  3.478092
C 	 -1.115121	 -0.266266	  2.265016
C 	 -0.513532	  0.579966	  1.323938
C 	 -0.386393	  1.940407	  1.640925
C 	 -0.860369	  2.438935	  2.853584
H 	 -2.063235	 -0.445188	  4.188749
H 	 -1.218563	 -1.326852	  2.045553
H 	  0.083529	  2.625684	  0.940624
H 	 -0.753644	  3.498006	  3.077243
H 	 -1.835057	  1.976442	  4.723548
Ti	  7.655641	 -0.167763	 -1.801356
Cl	  6.605896	  1.746804	 -1.673664
Cl	  7.794920	 -1.084654	  0.172662
Cl	  9.679472	  0.192909	 -2.554903
Cl	  6.616296	 -1.500709	 -3.185423
