27

H 	-1.118433680	-3.192874080	0.180532100
C 	-0.700079320	-0.985937020	0.273082880
C 	-0.486327690	-2.391315050	-0.199403690
C 	0.575489040	-2.764983860	-1.086229650
O 	0.846460090	-3.934368540	-1.405435450
H 	0.059060300	-0.359525890	-0.210603190
H 	-0.600575990	0.169821900	2.121109950
H 	0.539889090	-1.190929650	2.068273930
C 	-0.472797830	-0.870385830	1.804682740
H 	-1.182262040	-1.485766280	2.364985250
H 	1.180200090	-1.921270710	-1.488156530
C 	-4.527124620	0.750933270	-0.858704830
C 	-3.329423080	1.340012450	-1.259117890
C 	-2.111204260	0.758776970	-0.907064300
C 	-2.062552060	-0.413662460	-0.141762210
C 	-3.274709730	-0.999235680	0.248726770
C 	-4.493787400	-0.423153690	-0.105802160
H 	-3.339663020	2.255921100	-1.846268880
H 	-1.184701630	1.232567960	-1.225507320
H 	-3.279251060	-1.910502800	0.841260100
H 	-5.422463060	-0.893448250	0.210194720
H 	-5.478699020	1.201681390	-1.131165660
Ti	5.519628250	-2.572340230	-2.429593170
Cl	4.615098050	-4.548565640	-2.532416520
Cl	5.329508100	-1.570629440	-4.363465630
Cl	7.635980270	-2.760023070	-1.917053990
Cl	4.522212290	-1.367499730	-0.897519730
