27

H 	-2.113533352	-6.033657554	0.341156224
C 	-1.322958172	-1.863150946	0.516051850
C 	-0.919026134	-4.518930519	-0.376818358
C 	1.087516676	-5.225062242	-2.052676545
O 	1.599577749	-7.434879013	-2.655888085
H 	0.111607783	-0.679405467	-0.397982354
H 	-1.134924133	0.320916889	4.008316895
H 	1.020242512	-2.250530880	3.908471281
C 	-0.893458406	-1.644790850	3.410356128
H 	-2.234151473	-2.807691356	4.469174405
H 	2.230254936	-3.630675461	-2.812208278
C 	-8.555025669	1.419058211	-1.622716949
C 	-6.291697766	2.532256539	-2.379387969
C 	-3.989597847	1.433880656	-1.714103106
C 	-3.897658517	-0.781708758	-0.267891751
C 	-6.188304519	-1.888281765	0.470025478
C 	-8.492027445	-0.799644586	-0.199937113
H 	-6.311048462	4.263073039	-3.488942539
H 	-2.238761613	2.329215870	-2.315873200
H 	-6.196886404	-3.610327055	1.589751183
H 	-10.246970109	-1.688372507	0.397210453
H 	-10.353240676	2.270848709	-2.137593294
Ti	10.430585704	-4.861018537	-4.591265686
Cl	8.721271357	-8.595543316	-4.785573652
Cl	10.071310683	-2.968059489	-8.245755000
Cl	14.429911410	-5.215687706	-3.622707007
Cl	8.545742701	-2.584199963	-1.696066481
