25

H 	2.286680400	0.826349140	-0.271144430
C 	4.142385440	-0.100141560	0.231279700
C 	2.806511510	-0.090407400	-0.026518370
C 	2.003764680	-1.299114200	0.013735480
O 	0.760718530	-1.285824030	-0.217504090
H 	4.613234400	-1.052444720	0.477859530
C 	6.432016780	0.747113690	0.563211550
C 	7.394979590	1.750104090	0.590174440
C 	7.031862890	3.068341250	0.281352810
C 	5.708024500	3.372947880	-0.053749420
C 	4.760933290	2.356690440	-0.074397360
C 	5.076976260	1.011189240	0.231410600
H 	6.710170950	-0.277375480	0.803334560
H 	8.423160130	1.511458080	0.850288650
H 	7.776573940	3.860934890	0.299044290
H 	5.399798950	4.385626010	-0.299399750
F 	3.481822340	2.692289910	-0.408398350
C 	2.602644230	-2.652070880	0.332391750
H 	3.040897700	-2.653392700	1.338352570
H 	3.399915370	-2.902296310	-0.378519900
H 	1.818727670	-3.410279560	0.279889260
B 	-0.196760730	0.076233510	-0.601405290
F 	-0.042322600	0.914026370	0.489610610
F 	-1.436275690	-0.485734590	-0.736988840
F 	0.360236080	0.562277700	-1.772594980
