25

H 	2.285497096	0.821748015	-0.285920531
C 	4.141555629	-0.101158633	0.227261536
C 	2.806366039	-0.092027820	-0.034758420
C 	2.004048028	-1.299668390	0.013465874
O 	0.761876351	-1.287102967	-0.215442603
H 	4.609586539	-1.053613061	0.476314872
C 	6.432562137	0.745084701	0.555649977
C 	7.392695250	1.750308147	0.584764578
C 	7.026589759	3.068965172	0.283601247
C 	5.702032064	3.372588974	-0.044517996
C 	4.759609456	2.353524230	-0.065779773
C 	5.077187685	1.007942923	0.229965476
H 	6.713354945	-0.279994658	0.788414764
H 	8.421917893	1.512695254	0.839737065
H 	7.769237904	3.862727399	0.302169991
H 	5.388728664	4.385070888	-0.283402578
F 	3.481474903	2.688001173	-0.389936916
C 	2.601457337	-2.650299607	0.338890430
H 	3.044022962	-2.643881504	1.342448681
H 	3.393986932	-2.907576149	-0.373876844
H 	1.815101490	-3.405914881	0.296036587
B 	-0.187136515	0.078101395	-0.606384205
F 	-0.024772731	0.923510862	0.474954551
F 	-1.429880156	-0.472848850	-0.732154757
F 	0.369576949	0.550318156	-1.780185987
