36

H 	1.989935019	0.944429251	0.208897027
C 	0.000000000	0.000000000	0.000000000
C 	1.488947292	-0.000000000	0.000000000
C 	2.385953362	-1.127886667	-0.000000000
O 	3.505438212	-1.059958932	0.644253523
H 	-0.387101272	-0.975151693	-0.313623578
H 	-1.601129548	1.080525590	-1.042495791
H 	-0.125876339	0.881266506	-2.000320921
C 	-0.508833338	1.076688077	-0.991797138
H 	-0.169357896	2.075510251	-0.699257857
N 	2.109089482	-2.302488806	-0.621940712
C 	2.981433693	-3.464560646	-0.390147755
C 	1.152230012	-2.435613104	-1.727201502
H 	3.398222373	-3.417473429	0.615539391
H 	3.807495026	-3.482766148	-1.113855270
H 	2.381584006	-4.372533617	-0.508283395
H 	0.287761843	-3.042212703	-1.430319077
H 	1.656211747	-2.933834386	-2.564337720
H 	0.816466831	-1.455980836	-2.063993887
C 	-0.086155850	1.494448022	2.136061950
C 	-0.565659004	0.178894053	1.488634558
C 	-0.082118565	-1.019915177	2.336284683
C 	-2.108552996	0.157011282	1.430233374
H 	-2.478243658	-0.736152891	0.908915472
H 	-0.533090727	1.592968699	3.132567387
H 	-0.389988028	2.370694220	1.551979017
H 	1.000060563	1.516363657	2.263761688
H 	-0.554698736	-0.991721184	3.325159829
H 	0.999796083	-0.995637632	2.497313445
H 	-0.354857392	-1.973531435	1.863744548
H 	-2.510840619	0.138203226	2.450283881
H 	-2.518881696	1.041699372	0.932474551
Al	4.114767962	0.155938562	1.904314826
F 	3.871850341	1.674513495	1.195327513
F 	5.714115896	-0.281410652	2.150303002
F 	3.080352268	-0.084337217	3.218457613
