36

H 	1.635673249	1.976196918	0.894016363
C 	3.536135941	1.032222929	0.267453818
C 	2.062867548	1.063372748	0.480700087
C 	1.066550316	0.142359826	-0.004928777
O 	-0.104138756	0.578357545	-0.340064862
H 	3.858985093	0.038316717	-0.059726307
H 	5.337125259	1.323017931	1.488037528
H 	3.961583509	0.658613754	2.382440779
C 	4.250488547	1.370685277	1.600485602
H 	3.979322048	2.371667863	1.951158007
N 	1.294371460	-1.185785272	-0.170101918
C 	0.294139683	-2.007722107	-0.869444174
C 	2.347623468	-1.927430758	0.533833957
H 	-0.222276472	-1.404082020	-1.615279037
H 	-0.446859483	-2.405489865	-0.162929928
H 	0.812873172	-2.842088730	-1.352081202
H 	3.112450739	-2.286906954	-0.165611231
H 	1.891270493	-2.794570261	1.026611925
H 	2.810666663	-1.304297581	1.297470945
C 	3.534914529	3.455894508	-0.696586097
C 	3.952400899	1.991983508	-0.946460987
C 	3.266858923	1.471590515	-2.230473835
C 	5.483241860	1.909202671	-1.131081436
H 	5.819188528	0.869214152	-1.239476526
H 	3.879077343	4.079247039	-1.530530805
H 	3.983087175	3.856913317	0.219710503
H 	2.448465130	3.567439223	-0.634625670
H 	3.630439345	2.031592781	-3.100075877
H 	2.181296110	1.603428983	-2.195388772
H 	3.495780356	0.410212214	-2.398210814
H 	5.769372584	2.448738172	-2.041972627
H 	6.028285540	2.362725339	-0.296784678
Al	-0.725823480	2.300456000	-0.632176076
F 	-0.262504674	3.168935828	0.745800804
F 	-2.377054168	2.105426225	-0.844541170
F 	0.132678634	2.804734332	-1.997239089
