33

H 	2.726484703	0.323934566	0.758780225
C 	4.391276513	-0.969341092	0.906977877
C 	3.115991583	-0.680398032	0.608918638
C 	2.211814617	-1.562455870	-0.150855081
O 	1.505038962	-1.092789645	-1.111085901
H 	4.807334852	-1.945382994	0.652640033
C 	5.365837255	0.026588165	1.470274765
C 	6.480216034	0.333730439	0.472131024
C 	6.160954138	0.776221198	-0.822849103
C 	7.177889619	1.071628831	-1.735123266
C 	8.521302160	0.924733359	-1.369440724
C 	8.844655385	0.478513391	-0.083976594
C 	7.827081833	0.182352201	0.830144397
H 	4.834066892	0.948464489	1.740616786
H 	5.814610496	-0.376158387	2.389471931
H 	5.120709346	0.884021840	-1.121946846
H 	6.917767960	1.415243574	-2.733953535
H 	9.310252777	1.155634931	-2.082131997
H 	9.886103228	0.360486904	0.208437979
H 	8.082576805	-0.163375512	1.830958480
N 	2.097117631	-2.879688908	0.113172378
C 	1.289547024	-3.736837620	-0.773686388
C 	2.593449588	-3.529661401	1.333953170
H 	1.213115737	-3.276806115	-1.757873038
H 	0.280817319	-3.870012956	-0.361626449
H 	1.777574544	-4.713952700	-0.848669323
H 	3.437638713	-4.192216559	1.105604778
H 	1.783668267	-4.132188410	1.762099954
H 	2.906603758	-2.781804171	2.060640251
B 	1.634717515	0.412867037	-1.736832293
F 	2.974415128	0.563107155	-2.093736552
F 	1.248167328	1.286707362	-0.723164270
F 	0.772902782	0.375928691	-2.805680386
