26

H 	-0.971940295	-1.905974654	-0.002599892
C 	0.000000000	0.000000000	0.000000000
C 	-1.073314674	-0.827643323	-0.000000000
C 	-2.445334077	-0.355776790	-0.000000000
O 	-3.462553022	-1.098408684	-0.017984324
H 	-0.180603720	1.074499815	-0.004375599
C 	2.392018736	0.601759228	-0.032889414
C 	3.748009605	0.280480151	-0.035661775
C 	4.105051264	-1.064864299	-0.000071728
C 	3.159003143	-2.091399378	0.037858910
C 	1.810312869	-1.754670455	0.038743781
C 	1.397646538	-0.401486173	0.002589907
H 	2.090932178	1.646818820	-0.059127505
H 	4.518330248	1.045793794	-0.063677268
F 	5.428644330	-1.394213904	-0.000302861
H 	3.487254913	-3.126588456	0.066676302
H 	1.071514947	-2.550233151	0.070134386
O 	-2.616404148	0.973164453	0.024212265
C 	-3.999697116	1.458023607	0.025089638
H 	-4.524095016	1.083063559	0.907625565
H 	-4.512004651	1.121773901	-0.879915028
H 	-3.909794890	2.544117536	0.049265651
B 	-3.451621312	-2.804862011	-0.065445093
F 	-2.774023630	-3.104246464	-1.232058463
F 	-4.785961081	-3.090530793	-0.073162084
F 	-2.773983810	-3.172287519	1.082127728
