26

H 	2.318410070	0.818722500	-0.212224090
C 	4.165773380	-0.152040820	0.267096310
C 	2.834382140	-0.107683400	0.013459470
C 	1.980905530	-1.283023380	0.012253400
O 	0.741399740	-1.274031060	-0.219016450
H 	4.610862250	-1.122141180	0.489084970
C 	6.447032820	0.731014020	0.587864470
C 	7.384707990	1.762901590	0.611148180
C 	6.951360960	3.054608800	0.318247270
C 	5.619712500	3.343244330	0.006370300
C 	4.696006970	2.302769290	-0.012443700
C 	5.088975430	0.973892410	0.277539100
H 	6.766170460	-0.284793870	0.813049550
H 	8.428962980	1.580586230	0.849378850
F 	7.860303180	4.075753970	0.334456840
H 	5.327037710	4.365816810	-0.215999350
H 	3.660827510	2.524553380	-0.257058100
O 	2.579444890	-2.453864950	0.276075820
C 	1.722878120	-3.645288260	0.274364930
H 	1.261192830	-3.769492460	-0.708819280
H 	0.946429260	-3.545744820	1.037633590
H 	2.399206100	-4.469719870	0.501840760
B 	-0.204065000	0.105538430	-0.560937670
F 	-0.053325700	0.898428590	0.563046590
F 	-1.443481920	-0.445850780	-0.730542250
F 	0.366091050	0.642736010	-1.702432450
