26

H 	2.334237701	0.813537484	-0.226272288
C 	4.173881613	-0.164349156	0.260412493
C 	2.844543039	-0.114404803	0.000869862
C 	1.985742481	-1.283822141	0.005337506
O 	0.745499039	-1.267642294	-0.213966765
H 	4.616230377	-1.133794278	0.487767781
C 	6.447642203	0.730751358	0.597691848
C 	7.375601782	1.769943407	0.627859241
C 	6.933994165	3.054842799	0.323370572
C 	5.606098876	3.333023904	-0.007581730
C 	4.692227965	2.285838703	-0.031989087
C 	5.092710703	0.962708955	0.270747683
H 	6.771598241	-0.281202127	0.831130780
H 	8.418615335	1.599901926	0.879041162
F 	7.831588577	4.081555113	0.346948448
H 	5.310178736	4.352283290	-0.239395592
H 	3.658906545	2.497922921	-0.290822757
O 	2.580930332	-2.456882907	0.261493504
C 	1.720243259	-3.643379597	0.267147749
H 	1.249925620	-3.765677640	-0.711781443
H 	0.950873112	-3.540813649	1.036632073
H 	2.394667827	-4.470586015	0.488841134
B 	-0.191882671	0.120890957	-0.542061147
F 	-0.019679551	0.914494809	0.576104957
F 	-1.437592919	-0.415105912	-0.693857581
F 	0.370418866	0.646856405	-1.690231342
