34

H 	2.203642458	0.240729537	0.102926818
C 	0.000000000	0.000000000	0.000000000
C 	1.411270742	-0.495269088	0.000000000
C 	1.818199761	-1.857804629	0.000000000
O 	3.049291244	-2.164379833	0.096784867
H 	-0.639088213	-0.684987191	-0.571983651
H 	-1.164898105	1.755264008	-0.555910897
H 	0.209879510	1.424574099	-1.639738364
C 	-0.124308587	1.415694946	-0.595841353
H 	0.489570310	2.130424021	-0.036279698
C 	1.453039419	-4.382723385	-0.177568618
C 	0.814380710	-2.991080015	-0.112974262
H 	2.055523916	-4.579405714	0.714675280
H 	2.114863199	-4.472608457	-1.044883318
H 	0.674786052	-5.150073393	-0.250763204
H 	0.133733718	-2.914137562	0.747796927
H 	0.187343535	-2.805791492	-0.998272202
O 	-1.610633749	-0.297047191	5.483763616
H 	-2.381011073	-0.881946248	5.598950288
C 	-1.258553945	-0.255795066	4.155494898
C 	-0.156815765	0.539180454	3.805136226
C 	0.239153824	0.617674029	2.474784026
C 	-0.453237992	-0.081355600	1.464603517
C 	-1.540678508	-0.887112028	1.835364959
C 	-1.952679111	-0.970593175	3.165664146
H 	0.377383369	1.078084961	4.582896547
H 	1.104407044	1.223741234	2.220700956
H 	-2.084188426	-1.442822462	1.073867882
H 	-2.812035956	-1.583416576	3.435771573
Ti	4.951972009	-1.245973612	0.372452096
Cl	6.897780473	-0.156598279	0.665618993
Cl	5.779171283	-3.318791271	0.394606852
Cl	4.511352806	-0.294685747	-1.634033421
Cl	4.016573716	-0.449912532	2.281126564
