34

H 	1.559437727	2.231269383	0.772254941
C 	3.628841357	1.467390900	0.530091762
C 	2.138691586	1.373185240	0.443169217
C 	1.402076432	0.308780678	-0.145503333
O 	0.135832756	0.379015315	-0.248634098
H 	4.062518450	0.466614476	0.653287621
H 	5.185711111	2.427544653	1.713830585
H 	3.748950354	1.952835096	2.654266999
C 	4.092546614	2.361001107	1.696757934
H 	3.690478543	3.375360910	1.595715108
C 	1.116184426	-2.006861966	-1.192476266
C 	2.085732205	-0.940877190	-0.670573775
H 	0.502949997	-1.613033667	-2.008940280
H 	0.434523021	-2.339690503	-0.403243903
H 	1.674528350	-2.874290316	-1.560826517
H 	2.782208685	-0.626507051	-1.461914053
H 	2.720005633	-1.346801718	0.132035964
O 	5.230582385	3.432187843	-4.600993908
H 	5.831275212	2.810730288	-5.050231852
C 	4.871697974	2.921358044	-3.376161425
C 	3.998188784	3.687135545	-2.589312769
C 	3.606164391	3.217159568	-1.341022102
C 	4.078447948	1.985085987	-0.843572163
C 	4.935849336	1.223091405	-1.651941795
C 	5.342128754	1.685086890	-2.904102620
H 	3.633669595	4.636594216	-2.971872426
H 	2.916007808	3.812983884	-0.750077034
H 	5.305498453	0.264866894	-1.292414005
H 	6.025224981	1.092453253	-3.511695944
Ti	-1.468111280	1.731057386	0.124195982
Cl	-3.070383987	3.246748134	0.564945067
Cl	-2.789635129	0.170472911	-0.769936744
Cl	-0.845591400	1.490063939	2.287404056
Cl	-0.321614653	3.092969846	-1.283803084
