64
C27H32N2O3 optimized with ADF in AMS.
 O       -1.35853259571355       1.80570553234484      -1.96705857043041
 O        1.75002009361022       2.50931428720070      -1.01366224612605
 C        0.99816957548337       0.25310117339851      -0.24666022875729
 C        0.96142439084218       1.58181007981665      -0.90002594679040
 C       -0.31450300021123      -0.04576761017748      -0.64551676998103
 C       -0.46763037239755       1.26060301388306      -1.33449588419288
 N       -1.12569700489701      -1.08973338835201      -0.45025149648355
 N        1.93640625184978      -0.42195264695149       0.42650639020819
 C       -2.40131982349992      -1.25759089929409      -1.16496955841561
 C        3.21734896113866       0.18043265463665       0.83479334602050
 C       -3.62907963471584      -1.25626152688363      -0.19139286961834
 C       -4.92569464035590      -1.29617174035819      -1.02243006440774
 H       -5.79317574448965      -1.15731345314172      -0.36542578460436
 H       -4.94223254808876      -0.49106108293314      -1.76806486079868
 H       -5.05867074510169      -2.25084808487633      -1.54168355737671
 C       -3.60554840854445      -2.45040329804479       0.77734665821921
 H       -3.64395495618738      -3.41007381117388       0.25013523488541
 H       -4.47794387059942      -2.40666086089445       1.44131609664343
 H       -2.71508720562376      -2.43563675256060       1.41405883384388
 C       -3.61485487989917       0.05468124359903       0.61617869962509
 H       -3.62430228685267       0.92677596656147      -0.04758286758440
 H       -4.49787005585103       0.10671563109919       1.26432713968520
 H       -2.72644765225215       0.12800259882997       1.25080715137162
 C        3.13876901688435       0.67785156866452       2.27498739868795
 C        3.53496881679594      -0.09641972468735       3.36833051895621
 C        3.41372533559607       0.38993548712438       4.66787874277709
 C        2.89780034986953       1.66194665714237       4.89607588539258
 C        2.50108038587554       2.44334813033887       3.81382434121692
 C        2.61966242481029       1.95519572563355       2.51601189358411
 H        3.94841446810067      -1.08881817521679       3.21789462108232
 H        3.72984476002270      -0.22806800371201       5.50569442348779
 H        2.81049756168570       2.04304435083036       5.91103024721314
 H        2.10559544629286       3.44392712141307       3.97680742686770
 H        2.31056813590115       2.57215958518613       1.67613994460033
 H       -0.74040130170684      -1.90820693872717       0.01064250391363
 H        1.68143379799423      -1.30613530570028       0.86373803800432
 C       -2.28182108506294      -2.47125373547800      -2.09189498136491
 H       -2.50018491237942      -0.36221823885161      -1.78680687914644
 H        3.34461882752145       1.05833224121349       0.19363926376978
 C        4.35968461794412      -0.79178959361988       0.54649827114093
 C        0.24065852992591      -3.24809468083976       2.83858212778636
 C       -0.10332878590440      -2.11994182875621       3.68027579790700
 C       -0.78655196518279      -2.29955769808536       4.83348779165522
 O        0.76313041742728      -3.15722276801329       1.72783430286671
 H       -0.01273371333162      -4.24954713651153       3.25058100920037
 H        0.18010406949878      -1.13689056236856       3.31740098990846
 H       -1.04074931211544      -3.32589443218166       5.10563448764813
 C       -1.26491545164620      -1.28691607934175       5.75701805641263
 C       -0.94292499421358       0.07742789317333       5.63605769224574
 C       -1.45235186496234       1.00223938075244       6.53397416265824
 C       -2.28807917532828       0.59294001609774       7.57349564548978
 C       -2.60701011998897      -0.75477947581446       7.71508554120069
 C       -2.09716420048885      -1.68445032503897       6.81879891413019
 H       -0.27961754028435       0.41830597002098       4.84951937678580
 H       -1.19500464374123       2.05307323687437       6.42527980292578
 H       -2.68695708918052       1.32499240711315       8.27212540889125
 H       -3.25385645910461      -1.08166322821115       8.52573257759692
 H       -2.35168317656933      -2.73568385984925       6.93242040723102
 H       -1.41880931100391      -2.33264044143800      -2.75327802457379
 H       -3.17031646668661      -2.58648762444357      -2.71885600860969
 H       -2.13218442210255      -3.40199457332359      -1.53236834239814
 H        5.31281147228811      -0.36034191760031       0.87014410146998
 H        4.40493515322471      -0.98692831295929      -0.53043968483311
 H        4.22280297857715      -1.75242085594204       1.05565444737530
