25

H 	  2.006700	  0.948042	  0.146718
C 	  0.000000	  0.000000	  0.000000
C 	  1.489747	  0.000000	  0.000000
C 	  2.355568	 -1.124815	  0.000000
O 	  3.588607	 -1.107365	  0.128992
H 	 -0.372930	 -0.913400	 -0.474228
H 	 -1.684006	  1.221568	 -0.631220
H 	 -0.320916	  1.226101	 -1.775676
C 	 -0.592023	  1.231659	 -0.713835
H 	 -0.224107	  2.163905	 -0.272107
Cl	  1.585599	 -2.747138	 -0.237251
C 	 -1.029600	 -0.227822	  4.220404
C 	 -1.353492	 -1.283091	  3.356944
C 	 -1.010912	 -1.213711	  2.005175
C 	 -0.366646	 -0.074903	  1.494868
C 	 -0.026974	  0.973493	  2.371350
C 	 -0.363833	  0.898626	  3.724066
H 	 -1.871022	 -2.160452	  3.738478
H 	 -1.251800	 -2.038238	  1.338493
H 	  0.507749	  1.844227	  2.001793
H 	 -0.097403	  1.714959	  4.391207
H 	 -1.288030	 -0.288249	  5.275145
Zn	  4.991837	  0.399434	  0.814289
Cl	  6.902616	 -0.401472	  0.318313
Cl	  3.810346	  1.996662	  1.657988
