25

H 	0.513385310	-1.826052990	-0.320382940
C 	-0.625404470	-0.246360970	0.742668080
C 	0.418339060	-0.749209680	-0.197060720
C 	1.299653300	0.013148550	-1.008935160
O 	2.237293630	-0.427844820	-1.692199940
H 	-0.439963780	0.809798870	0.959026470
H 	-1.444955870	-0.674352930	2.710806040
H 	0.319646160	-0.916985650	2.589979590
C 	-0.635644490	-1.040128170	2.069256240
H 	-0.787760700	-2.111062560	1.897680010
Cl	1.039940280	1.806261230	-1.029735930
C 	-4.377947620	-0.442613860	-1.456520890
C 	-3.768961420	0.792640160	-1.201330210
C 	-2.556176320	0.846997850	-0.509382460
C 	-1.951135740	-0.330593260	-0.038914470
C 	-2.559705580	-1.569170180	-0.314912740
C 	-3.769285740	-1.623014440	-1.012383890
H 	-4.238170410	1.713390390	-1.542167000
H 	-2.079293590	1.806119450	-0.320346230
H 	-2.098501090	-2.493279960	0.026432510
H 	-4.236427790	-2.585612670	-1.210803280
H 	-5.318790940	-0.485353140	-2.001178430
Zn	3.538225180	-2.069559810	-1.177752150
Cl	4.627471860	-2.597524150	-2.928497550
Cl	3.044631880	-2.371991220	0.907628460
