23

H 	  1.935603	  0.916726	  0.007549
C 	  0.000000	  0.000000	  0.000000
C 	  1.357992	  0.000000	 -0.000000
C 	  2.154353	 -1.201074	  0.000000
O 	  3.369599	 -1.302719	  0.013744
H 	 -0.508425	 -0.963311	 -0.000596
C 	 -2.626687	  3.363513	  0.040711
C 	 -1.239475	  3.574773	  0.027108
C 	 -0.365358	  2.493084	  0.013338
C 	 -0.862934	  1.168797	  0.011119
C 	 -2.262489	  0.973885	  0.022889
C 	 -3.136097	  2.060439	  0.037701
H 	 -0.844749	  4.587957	  0.028597
H 	  0.705860	  2.673595	  0.004193
H 	 -2.655505	 -0.040900	  0.021721
H 	 -4.210501	  1.893607	  0.047330
H 	 -3.304942	  4.213633	  0.052411
F 	  1.433933	 -2.373109	 -0.015456
Ti	  5.170878	  0.227096	  0.045757
Cl	  6.859678	  1.672339	  0.065236
Cl	  4.236675	  0.882756	 -1.882151
Cl	  4.181559	  0.890303	  1.943639
Cl	  6.338100	 -1.657060	  0.071514
