28

H 	  1.988193	  0.962397	  0.042001
C 	  0.000000	  0.000000	  0.000000
C 	  1.471268	 -0.000000	 -0.000000
C 	  2.358690	 -1.104319	 -0.000000
O 	  3.591591	 -1.035031	  0.237283
H 	 -0.366802	 -1.021489	 -0.150484
H 	 -1.606435	  0.909576	 -1.173826
H 	 -0.171625	  0.486018	 -2.122616
C 	 -0.513199	  0.891159	 -1.164471
H 	 -0.144603	  1.917846	 -1.079482
I 	  1.588152	 -3.072522	 -0.468168
C 	  0.049839	 -0.510906	  2.504741
C 	 -0.549947	  0.443269	  1.446442
C 	 -2.084377	  0.292170	  1.440756
C 	 -0.161517	  1.896730	  1.784166
H 	 -0.567731	  2.609809	  1.058777
H 	 -0.398433	 -0.307975	  3.484243
H 	  1.133342	 -0.377200	  2.602459
H 	 -0.151327	 -1.559976	  2.254790
H 	 -2.470075	  0.485866	  2.449258
H 	 -2.384873	 -0.724109	  1.156601
H 	 -2.571462	  1.000468	  0.762713
H 	 -0.569288	  2.160191	  2.767514
H 	  0.924297	  2.028594	  1.836885
Al	  4.501676	  0.392954	  1.124113
F 	  3.624654	  0.434458	  2.561883
F 	  4.138645	  1.706593	  0.130603
F 	  6.093773	 -0.096382	  1.193670
