28

H 	0.740311813	-1.565600096	0.461469140
C 	-0.690612556	0.055217848	0.915658088
C 	0.588997420	-0.483374649	0.428681706
C 	1.683920105	0.210567313	-0.142830556
O 	2.641636133	-0.333620880	-0.749287604
H 	-0.650954553	1.150231033	0.916981398
H 	-1.887377221	-0.052721012	2.743753825
H 	-0.138461023	-0.071518967	3.025215978
C 	-0.934883515	-0.437075309	2.368761314
H 	-0.948471358	-1.529554845	2.427719027
I 	1.775687365	2.365517014	0.042916287
C 	-1.493276738	0.202904215	-1.507388307
C 	-1.873490319	-0.328774520	-0.106337145
C 	-3.161565288	0.373031289	0.368709249
C 	-2.095141717	-1.853057471	-0.176451893
H 	-2.368772430	-2.273764200	0.797104698
H 	-2.331824346	0.060353928	-2.198814876
H 	-0.628875878	-0.329004547	-1.921258618
H 	-1.261957731	1.274856035	-1.477362838
H 	-3.954513936	0.212558429	-0.372127148
H 	-3.012636976	1.455264608	0.470967953
H 	-3.522950210	-0.019432677	1.324770027
H 	-2.917702104	-2.066745161	-0.869556154
H 	-1.210307266	-2.378625946	-0.550624237
Al	2.662900106	-2.092318522	-1.497880160
F 	1.316550590	-1.984866758	-2.504790484
F 	2.357678505	-3.050195355	-0.143696268
F 	4.163125217	-2.232181845	-2.211200569
