28

H 	0.741949992	-2.100083091	1.192658382
C 	-0.561804464	-0.325536099	0.943718342
C 	0.365922104	-1.446468995	0.401724613
C 	1.518895769	-0.926229752	-0.391076723
O 	2.681833437	-1.280720774	-0.218467980
H 	-0.744971181	0.363679633	0.107231158
H 	-0.187239867	-2.069456118	-0.315939959
H 	0.433692787	-0.143948367	2.896044641
C 	0.191391918	0.471279552	2.024067824
H 	1.136734630	0.856881970	1.629987799
H 	-0.379941069	1.334985627	2.367418286
C 	-2.713441562	-1.445825473	0.139055629
C 	-1.989839091	-0.844238241	1.364436546
C 	-2.840044246	0.348817785	1.858191588
C 	-1.929293393	-1.906808862	2.481428326
H 	-1.445082224	-1.527210340	3.385455206
H 	-3.746025832	-1.699098157	0.398382525
H 	-2.247794493	-2.367672478	-0.221166435
H 	-2.749456730	-0.736675654	-0.695194981
H 	-3.872531560	0.027972241	2.027362230
H 	-2.864150607	1.158611711	1.120827364
H 	-2.473240602	0.760980167	2.800925590
H 	-2.941899059	-2.213663378	2.762468225
H 	-1.397078426	-2.809323112	2.166623626
H 	1.280809401	-0.197824998	-1.189556016
Sn	4.621169484	-0.460712105	-1.635453220
Cl	3.345890808	-0.975847874	-3.650108533
Cl	3.882322679	1.841029872	-1.300464605
