22

H 	1.961464469	0.906127705	0.003908943
C 	0.000000000	0.000000000	0.000000000
C 	1.365087676	-0.000000000	0.000000000
C 	2.066214657	-1.244016358	0.000000000
O 	3.308288241	-1.394862369	-0.007359880
H 	-0.494701360	-0.972926130	0.002479439
C 	-2.724182343	3.270857074	-0.003046770
C 	-3.191239952	1.954997054	-0.007478014
C 	-2.285533627	0.900711872	-0.006686017
C 	-0.893173772	1.138275183	-0.001228150
C 	-0.440080463	2.477184062	0.003615768
C 	-1.348132119	3.526456349	0.002138577
H 	-4.259200774	1.753615568	-0.011989087
H 	-2.650447367	-0.123670514	-0.009675180
H 	0.622859659	2.696155631	0.009151816
H 	-0.986253509	4.551244981	0.006274030
H 	-3.429499052	4.098325455	-0.004156101
H 	1.463617782	-2.167261364	0.008928355
Al	4.857753033	-0.265828154	-0.077291180
F 	4.240996175	1.287484152	0.168481702
F 	5.410250776	-0.544636800	-1.633713275
F 	5.784662842	-0.855759202	1.184280384
