22

H 	  1.925280	  0.918410	  0.006039
C 	  0.000000	  0.000000	  0.000000
C 	  1.345117	  0.000000	  0.000000
C 	  2.162654	 -1.208084	  0.000000
O 	  3.368008	 -1.290700	  0.019932
H 	 -0.516811	 -0.960671	 -0.001514
C 	 -1.826488	  1.113095	 -1.236910
C 	 -0.899412	  1.210154	  0.007170
C 	 -0.122466	  2.540815	 -0.023096
C 	 -1.769937	  1.136431	  1.294041
H 	 -1.146806	  1.203924	  2.192830
H 	 -2.538952	  1.946583	 -1.232991
H 	 -2.396191	  0.176362	 -1.235583
H 	 -1.244506	  1.161014	 -2.164289
H 	 -0.825410	  3.381316	 -0.019910
H 	  0.495834	  2.623335	 -0.924429
H 	  0.529549	  2.646029	  0.851654
H 	 -2.483837	  1.968693	  1.304453
H 	 -2.336948	  0.199061	  1.337057
F 	  1.427637	 -2.385344	 -0.026462
I 	  4.992008	  1.063233	  0.228720
I 	  6.465958	  3.386735	  0.458130
