22

H 	1.925280060	0.918409679	0.006039037
C 	0.000000000	0.000000000	0.000000000
C 	1.345116659	0.000000000	0.000000000
C 	2.162654441	-1.208084461	0.000000000
O 	3.368007907	-1.290700356	0.019931528
H 	-0.516810811	-0.960670525	-0.001514103
C 	-1.826488320	1.113094636	-1.236910081
C 	-0.899412243	1.210154179	0.007170147
C 	-0.122465817	2.540814955	-0.023095785
C 	-1.769936514	1.136430575	1.294040636
H 	-1.146806343	1.203923860	2.192830016
H 	-2.538951709	1.946583278	-1.232991254
H 	-2.396191198	0.176361625	-1.235583117
H 	-1.244506468	1.161013842	-2.164289496
H 	-0.825409696	3.381315632	-0.019910227
H 	0.495833513	2.623335045	-0.924428826
H 	0.529548963	2.646029470	0.851654394
H 	-2.483836638	1.968692511	1.304452764
H 	-2.336948498	0.199060794	1.337057425
F 	1.427637362	-2.385343684	-0.026461506
I 	4.992007807	1.063232512	0.228719543
I 	6.465957854	3.386735074	0.458130185
