22

H 	0.047448030	0.078472890	-0.060970800
C 	-0.006810560	-2.049168720	-0.126202600
C 	0.598823560	-0.855470890	0.004527430
C 	2.030626540	-0.667106990	0.219417700
O 	2.637668790	0.376559730	0.273826900
H 	0.603156290	-2.952315240	-0.067979940
C 	-1.640652530	-3.038793420	-1.702474810
C 	-1.481408380	-2.282632810	-0.351800070
C 	-2.303757440	-0.977792730	-0.387634490
C 	-1.988439410	-3.192307920	0.803547710
H 	-1.886749960	-2.688425670	1.771701120
H 	-2.697290850	-3.284916620	-1.864634030
H 	-1.067419760	-3.973781140	-1.705729920
H 	-1.297226730	-2.420254230	-2.539856930
H 	-3.362791560	-1.212632190	-0.545305570
H 	-1.981207540	-0.320312980	-1.203275850
H 	-2.219360550	-0.424392770	0.555110040
H 	-3.047193670	-3.432960290	0.648293380
H 	-1.425929830	-4.133020890	0.843686140
F 	2.741420550	-1.854873600	0.377059580
I 	1.213557300	2.838834960	-0.431298570
I 	-0.296541500	5.025697560	-1.167786540
