28

H 	1.892588855	0.905703053	-0.341161695
C 	0.000000000	0.000000000	0.000000000
C 	1.399084382	0.000000000	0.000000000
C 	2.252501577	-1.159022574	0.000000000
O 	3.328034695	-1.176143258	-0.706341971
H 	-0.565541376	-0.842780549	0.386937703
H 	0.240094356	-0.168897519	-2.624032245
H 	-1.353887910	-0.961312514	-2.090588465
H 	0.238946119	-1.875162035	-1.910653194
C 	-0.268975242	-0.923072311	-2.032490819
N 	1.956478792	-2.289283423	0.710191743
C 	2.748494932	-3.508752253	0.497341238
C 	1.066760536	-2.309181025	1.875190108
H 	3.221312146	-3.470120204	-0.483504771
H 	2.083275990	-4.377597362	0.562895320
H 	3.532144201	-3.604566579	1.262000138
H 	0.830804120	-1.290154534	2.183959904
H 	1.577441806	-2.816854213	2.703253645
H 	0.135984537	-2.853646454	1.663408735
C 	-2.146993309	1.197873149	-0.247878478
H 	-2.553720284	2.167406686	0.054687427
H 	-2.621157172	0.422729398	0.364090594
H 	-2.407421063	1.018132666	-1.302390135
N 	-0.704726098	1.184931365	-0.011000657
H 	-0.198721538	1.970599796	-0.413555566
Zn	3.739897759	-0.220789724	-2.432087985
Cl	2.554784252	1.581312959	-2.825878419
Cl	5.252480696	-1.368954160	-3.463451730
