28

H 	1.930458800	1.705030250	-1.532534350
C 	3.536949910	0.842387290	-0.441316080
C 	2.234174770	0.838415360	-0.951422850
C 	1.131651060	0.042304220	-0.478218510
O 	-0.055120350	0.539651580	-0.419605470
H 	3.937459280	-0.011930550	0.097343830
H 	2.625438300	2.660239100	1.248365660
H 	4.019764460	1.717367950	2.038320800
H 	2.328573710	0.980972750	1.964588070
C 	3.034742680	1.710234150	1.577959720
N 	1.291823570	-1.246482030	-0.044812810
C 	0.181366960	-1.930340090	0.635372740
C 	2.417223360	-2.103644320	-0.434544600
H 	-0.516101720	-1.190352530	1.027124640
H 	0.587987530	-2.538578980	1.452352960
H 	-0.356815230	-2.588457870	-0.061719980
H 	2.983489110	-1.635380770	-1.241047620
H 	2.023872990	-3.063145490	-0.794508570
H 	3.085156480	-2.305503200	0.414763780
C 	5.796842820	1.844357980	-0.322330080
H 	6.508329420	2.276570280	-1.032933610
H 	6.181630730	0.868909060	-0.004104000
H 	5.734650910	2.500609290	0.559960520
N 	4.504606160	1.661672960	-0.984592580
H 	4.140472970	2.492974920	-1.445802170
Zn	-0.634446800	2.457882890	-0.195752830
Cl	0.863727470	3.974542690	-0.712392300
Cl	-2.644094410	2.437302620	0.600213240
