33

H 	2.194912166	-0.320599108	0.093101104
C 	0.000000000	0.000000000	0.000000000
C 	1.242561924	-0.834706372	-0.000000000
C 	1.283740712	-2.254850343	-0.000000000
O 	2.390941312	-2.898881177	0.075564963
H 	-0.809527793	-0.518287927	-0.528944504
H 	-0.697834891	1.969902891	-0.616191626
H 	0.522319141	1.259655073	-1.703138027
C 	0.222538948	1.376883440	-0.655235203
H 	1.011172777	1.934897576	-0.138347274
C 	0.254777941	-4.598903367	-0.161279947
C 	0.019832159	-3.085567374	-0.095617443
H 	0.785381854	-4.953873489	0.727746159
H 	0.859462661	-4.867395228	-1.033442488
H 	-0.705501378	-5.121981811	-0.227600867
H 	-0.606039933	-2.828087702	0.771821464
H 	-0.547281547	-2.741011170	-0.973715453
O 	-1.453590917	0.319048927	5.527036943
H 	-2.328984911	-0.076018259	5.690023311
C 	-1.145691689	0.220349753	4.190726714
C 	0.092413676	0.733787910	3.775379268
C 	0.452309521	0.661265134	2.434528040
C 	-0.410820167	0.089105940	1.476581759
C 	-1.637446402	-0.435475182	1.912872165
C 	-2.013293251	-0.365345918	3.254541763
H 	0.757391544	1.175618216	4.512654055
H 	1.420668307	1.049064455	2.129613480
H 	-2.316793781	-0.887911850	1.193137803
H 	-2.977913078	-0.758081139	3.574612723
B 	3.891066764	-2.221979192	0.244760682
F 	4.069427668	-1.438829564	-0.890936834
F 	4.715161424	-3.314334958	0.320323580
F 	3.821465754	-1.471369378	1.415879462
