33

H 	1.406139110	2.134140070	0.962888460
C 	3.496757380	1.472075880	0.569730770
C 	2.005454950	1.341839560	0.523256280
C 	1.296787480	0.308415850	-0.153395250
O 	0.018888450	0.330677500	-0.270770930
H 	3.949233960	0.480828950	0.719752300
H 	5.050404200	2.488861010	1.716224050
H 	3.626686570	2.023091610	2.681763970
C 	3.958079820	2.406652340	1.709288810
H 	3.540813590	3.411459110	1.575437660
C 	1.110701980	-1.925449880	-1.407715090
C 	2.022361000	-0.873430500	-0.765075930
H 	0.508541430	-1.486833900	-2.209754030
H 	0.420391720	-2.353986480	-0.673566520
H 	1.717379280	-2.734828610	-1.829078190
H 	2.733713140	-0.473048410	-1.502961200
H 	2.648233530	-1.326412500	0.019741000
O 	5.159864020	3.355424720	-4.575765790
H 	5.895057230	2.823953080	-4.931335520
C 	4.791647920	2.864881060	-3.342978630
C 	3.743510440	3.517894840	-2.677749700
C 	3.333502600	3.065680630	-1.426623180
C 	3.956748410	1.960941380	-0.811157480
C 	4.992376400	1.308773570	-1.497253520
C 	5.419745120	1.757800620	-2.748426890
H 	3.261079700	4.368070720	-3.153081310
H 	2.511312610	3.572988240	-0.927305320
H 	5.480671610	0.446917550	-1.045353090
H 	6.238167590	1.252650500	-3.261194190
B 	-0.969360110	1.560531300	0.238875600
F 	-0.808980510	1.613812470	1.620036310
F 	-2.209682970	1.150214360	-0.177414290
F 	-0.487609030	2.698942350	-0.410333990
