33

H 	1.417575625	2.217940535	0.691324185
C 	3.501259288	1.469322058	0.527239495
C 	2.014096394	1.359073600	0.397290792
C 	1.314217761	0.267047954	-0.182497515
O 	0.039070960	0.280455471	-0.324623592
H 	3.950071108	0.475218792	0.645842018
H 	5.010044465	2.429846120	1.771483794
H 	3.551825494	1.922569836	2.660836654
C 	3.918531991	2.350517858	1.720571894
H 	3.506186791	3.361180311	1.625550496
C 	1.120328563	-2.085935762	-1.185111494
C 	2.037802562	-0.976346022	-0.659042126
H 	0.526031456	-1.735564577	-2.034795375
H 	0.421641693	-2.420734461	-0.411712842
H 	1.720866191	-2.943336490	-1.508166357
H 	2.749839706	-0.661504790	-1.436435218
H 	2.659964504	-1.345915571	0.170250292
O 	5.182951898	3.548239812	-4.533676141
H 	5.778681202	2.930149528	-4.994141428
C 	4.804734287	3.009753471	-3.326509048
C 	3.932664318	3.766128879	-2.528745080
C 	3.520559540	3.268765443	-1.297702492
C 	3.972195528	2.017931961	-0.827106473
C 	4.829867265	1.267191542	-1.646212454
C 	5.254975244	1.756089149	-2.881736073
H 	3.585156468	4.730268817	-2.890209005
H 	2.832950314	3.858470804	-0.697268417
H 	5.185898378	0.296310803	-1.307299800
H 	5.937659992	1.170913538	-3.497113049
B 	-0.961640421	1.539493441	0.063448545
F 	-0.804418174	1.723171528	1.433298290
F 	-2.196272895	1.078959874	-0.312948008
F 	-0.496698879	2.617855537	-0.685379300
