31

H 	2.326446010	0.532924150	0.861244760
C 	4.036156370	-0.149744940	-0.210145280
C 	2.785972780	-0.269323380	0.290807590
C 	1.871695180	-1.370453360	-0.039809520
O 	0.632594370	-1.150419500	-0.286933950
H 	4.390889130	-0.930072220	-0.887318430
O 	6.153753570	0.615212370	-2.064915240
H 	5.313530700	0.192611630	-2.315820390
C 	6.019771220	1.237323380	-0.839206800
C 	6.979936110	2.207622450	-0.526600300
C 	6.896203790	2.906641860	0.675962390
C 	5.849939430	2.648480100	1.577030360
C 	4.906336020	1.675216240	1.272224320
C 	4.972321450	0.933046300	0.069158770
H 	7.767383120	2.411462010	-1.248004720
H 	7.642730490	3.662883640	0.909018780
H 	4.115526450	1.448473170	1.983181590
H 	5.784758080	3.196369410	2.513716330
N 	2.295945990	-2.654606040	-0.113659040
C 	1.374111990	-3.694783950	-0.609822520
C 	3.534458690	-3.160665540	0.501678130
H 	0.653235860	-3.249588170	-1.295400260
H 	0.831415030	-4.158573580	0.224812380
H 	1.964806450	-4.460707840	-1.123159390
H 	4.240327130	-3.502511460	-0.265895640
H 	3.281611570	-4.013022150	1.144684830
H 	4.004670730	-2.385854830	1.105581670
B 	-0.038323780	0.335630660	-0.488610250
F 	0.702789390	0.948923990	-1.494774740
F 	0.083628610	0.977889470	0.745872590
F 	-1.335118460	0.036798230	-0.838474660
