30

H 	1.490492450	2.185659160	0.850508800
C 	3.567204940	1.475926160	0.484321190
C 	2.074806290	1.404697720	0.374627390
C 	1.347569570	0.362078620	-0.291427720
O 	0.080844650	0.379501970	-0.354655530
H 	3.915055530	0.561002310	1.003696920
H 	5.129948650	2.721270960	1.353118060
H 	3.617878650	2.689667520	2.284576040
C 	4.038283220	2.706604090	1.271395700
H 	3.709990820	3.621666860	0.766604240
C 	1.150061510	-1.973515710	-1.334774240
C 	2.069322870	-0.817841090	-0.921661470
H 	0.404473650	-1.642285490	-2.063986530
H 	0.610378310	-2.378771370	-0.471745370
H 	1.743920480	-2.778563220	-1.782048170
H 	2.623775070	-0.421025140	-1.784035040
H 	2.842098920	-1.160443940	-0.217232280
O 	4.112649230	1.471391590	-0.860811090
C 	5.390566860	0.799528470	-0.975762770
C 	5.899362210	0.990253900	-2.397792780
H 	5.261980470	-0.271013850	-0.743646550
H 	6.099539230	1.221462890	-0.245823100
H 	5.190336810	0.574896410	-3.123236980
H 	6.861385350	0.477557620	-2.520863470
H 	6.040348440	2.054076610	-2.619066340
Sn	-1.598717840	1.897676490	0.376041370
Cl	-0.738477060	1.341072600	2.533339290
Cl	-2.936705870	0.316760990	-0.761824390
Cl	-3.322988280	3.386636620	1.107708300
Cl	-0.356579300	3.477221290	-0.914561910
