24

H 	2.412564660	0.739133940	-0.445492320
C 	4.218655930	-0.117777120	0.297781940
C 	2.922493660	-0.150791850	-0.095252520
C 	2.064626070	-1.331288830	0.026520020
O 	0.795978220	-1.246628670	0.003483350
H 	4.653562000	-1.011743960	0.751490840
C 	6.399953450	0.863814270	0.905454470
C 	7.332629590	1.896027520	0.934295830
C 	7.038148220	3.114408770	0.307814420
C 	5.814657420	3.290174450	-0.347975420
C 	4.897002010	2.247255390	-0.364077940
C 	5.143923940	1.004241140	0.262885270
H 	6.624055980	-0.082729210	1.394659270
H 	8.284011780	1.755732190	1.441388860
H 	7.758736560	3.928912190	0.325818210
H 	5.562509930	4.222480330	-0.846246630
F 	3.721156970	2.447119210	-1.027334070
N 	2.599226700	-2.563803740	0.168935300
H 	1.970688590	-3.355632240	0.251488680
H 	3.590599070	-2.732778190	0.068457600
Al	-0.433885710	0.155590280	-0.221388420
F 	-0.706862120	0.132775160	-1.880884640
F 	0.405276510	1.528334780	0.301462330
F 	-1.716786330	-0.307472730	0.754795420
