26

H 	-0.682532953	-2.037952115	0.000576974
C 	0.000000000	0.000000000	0.000000000
C 	-0.936774303	-0.982034518	0.000000000
C 	-2.361539626	-0.730313663	0.000000000
O 	-3.233920816	-1.642593579	0.033673176
H 	-0.340068071	1.035397020	0.004782273
C 	2.274847173	0.950314310	0.026372361
C 	3.662617861	0.831952830	0.032645933
C 	4.213291550	-0.447233798	0.013016958
C 	3.428887262	-1.602895929	-0.012628640
C 	2.045792335	-1.469144499	-0.016299237
C 	1.439395168	-0.189657523	0.003192457
H 	1.822996454	1.939737819	0.042092960
H 	4.312609666	1.702006324	0.052512246
F 	5.569459687	-0.577995260	0.018011713
H 	3.906395756	-2.578491056	-0.028354888
H 	1.431721293	-2.365028016	-0.036281138
O 	-2.754646920	0.545754363	-0.049614587
C 	-4.201322103	0.795422737	-0.037793534
H 	-4.639501652	0.388355223	0.876666694
H 	-4.663978280	0.330266433	-0.911677195
H 	-4.291769620	1.880870606	-0.072234039
Al	-3.235240373	-3.511095711	0.267770108
F 	-3.680734648	-3.668394016	1.877578377
F 	-1.635311207	-3.966918615	-0.045449403
F 	-4.348039300	-4.024213784	-0.874058422
