25

H 	2.429091650	0.768921680	-0.288794730
C 	4.231259810	-0.130059240	0.434367860
C 	2.912436240	-0.127508710	0.092932810
C 	2.050873750	-1.277577860	0.207392730
O 	0.839662860	-1.218835380	-0.171430460
H 	4.671738470	-1.048352320	0.826030530
C 	7.004767280	3.099358770	0.143167850
C 	7.405259010	1.862145570	0.661439880
C 	6.486343530	0.817111380	0.749357640
C 	5.147956740	0.990338600	0.324957570
C 	4.758348780	2.250283480	-0.193091590
C 	5.679135390	3.289195470	-0.280028150
H 	8.431275380	1.714004070	0.991099530
H 	6.795293710	-0.147169840	1.149970090
H 	3.735993900	2.411363810	-0.524927040
H 	5.370120460	4.252248790	-0.680408450
H 	7.719559580	3.916292890	0.070198590
C 	2.523981530	-2.596090000	0.772947390
H 	3.335052190	-3.005786270	0.157393970
H 	1.691108310	-3.302175500	0.785511470
H 	2.912419390	-2.467440000	1.790653280
Al	-0.220933640	0.062837640	-1.069938170
F 	-0.020792020	-0.395337250	-2.673555030
F 	0.502909020	1.554922270	-0.713800840
F 	-1.737307100	-0.157040840	-0.392640680
