27

H 	-1.767197680	-1.186443517	-0.030003788
C 	0.000000000	0.000000000	0.000000000
C 	-1.344549300	-0.185491156	0.000000000
C 	-2.327857818	0.884188909	0.000000000
O 	-3.557818768	0.619542904	0.019709427
H 	0.399984952	1.011027337	0.030395928
C 	0.666367373	-2.432931841	-0.175359800
C 	1.656758327	-3.407281447	-0.216966503
C 	3.009906767	-3.044779631	-0.125781028
C 	3.371943128	-1.701478833	0.004981942
C 	2.365621079	-0.745173949	0.042449586
C 	0.993297986	-1.060310957	-0.040465186
H 	-0.376708524	-2.725790640	-0.259255896
H 	1.380091637	-4.452722345	-0.324330638
H 	3.783914453	-3.807752683	-0.158357282
H 	4.410156446	-1.389743908	0.076817423
F 	2.732180165	0.568816424	0.171058550
C 	-3.082407563	3.335194408	0.003622210
C 	-1.911316117	2.346839631	-0.033249410
H 	-3.685022525	3.199155420	0.907096755
H 	-3.743711776	3.195814380	-0.857314869
H 	-2.702891270	4.362554292	-0.011972930
H 	-1.229790039	2.520195263	0.812465914
H 	-1.301005457	2.498499561	-0.935834730
Zn	-4.643077559	-1.164699878	0.185464594
Cl	-6.384605166	-0.648779411	1.325474092
Cl	-3.607373684	-2.792820391	-0.810320019
