27

H 	2.450416400	0.686551560	0.641597490
C 	4.259220380	-0.161309480	-0.101184330
C 	2.946846430	-0.197250350	0.248127640
C 	2.105302880	-1.379206020	0.174795320
O 	0.894991540	-1.325373930	0.519996620
H 	4.733813720	-1.059670120	-0.490045390
C 	4.699792840	2.239060090	0.552509980
C 	5.561608390	3.327035110	0.627516720
C 	6.877427360	3.219305670	0.149362060
C 	7.332450110	2.016753300	-0.400698760
C 	6.455341020	0.940812100	-0.463192710
C 	5.122185950	1.003824900	-0.002692320
H 	3.685905080	2.332014100	0.933780450
H 	5.214210660	4.261887120	1.060509740
H 	7.550695280	4.071717930	0.205884490
H 	8.345905970	1.905745590	-0.776944300
F 	6.914463150	-0.236394790	-1.001707670
C 	1.608923790	-3.829217190	-0.412348420
C 	2.656068710	-2.713252350	-0.309564310
H 	0.807904100	-3.554820230	-1.106600650
H 	1.148352050	-4.030264310	0.560013270
H 	2.082413600	-4.749714670	-0.771474260
H 	3.141190260	-2.543949460	-1.281778510
H 	3.467351730	-3.002739620	0.375917130
Zn	-0.368619170	0.240604190	1.122926730
Cl	-2.323664170	-0.364260990	0.473611330
Cl	0.730209670	1.828306420	2.121300800
