27

H 	2.448903679	0.683330164	0.638983551
C 	4.252408579	-0.153102726	-0.122124969
C 	2.943771123	-0.196252714	0.235402479
C 	2.103594653	-1.379290025	0.160320530
O 	0.892094043	-1.323194256	0.495506220
H 	4.726394807	-1.045928197	-0.523731599
C 	4.702286145	2.237198713	0.569267165
C 	5.569446432	3.320091311	0.654936129
C 	6.879520436	3.217978503	0.160960280
C 	7.322900919	2.026194557	-0.418428267
C 	6.439787061	0.956911428	-0.491574868
C 	5.113724397	1.012667654	-0.014179940
H 	3.694690789	2.325389880	0.966490120
H 	5.230740239	4.247070375	1.109915376
H 	7.557091343	4.065697942	0.228387311
H 	8.330830639	1.916207089	-0.808564563
F 	6.885233530	-0.206660319	-1.061798301
C 	1.615987013	-3.843553277	-0.355849804
C 	2.654001111	-2.716502181	-0.311776948
H 	0.786734308	-3.590117401	-1.023702977
H 	1.194094055	-4.030551792	0.636622158
H 	2.084003806	-4.766648912	-0.714456673
H 	3.102602736	-2.562391369	-1.304133143
H 	3.491921770	-2.983381101	0.349135080
Zn	-0.366252542	0.244241092	1.085840045
Cl	-2.287756363	-0.253622449	0.274255821
Cl	0.731953024	1.724412579	2.233917927
