24

C 	0.072379000	0.458490000	0.147016000
C 	0.881364000	-0.769627000	0.345434000
H 	0.320085000	-1.649370000	0.008484000
C 	-1.244537000	0.481405000	-0.412106000
H 	0.491509000	1.421715000	0.440204000
O 	-1.898244310	1.497560150	-0.580911970
C 	1.357984000	-0.971567000	1.798392000
H 	1.975789000	-1.872162000	1.871864000
H 	0.508075000	-1.083701000	2.478485000
H 	1.956137000	-0.121560000	2.141940000
F 	-1.779758300	-0.771166890	-0.776388630
C 	1.717276080	-0.073069400	-1.896125640
C 	2.129687570	-0.680856520	-0.552011300
C 	2.684779550	-2.094603820	-0.750312290
C 	3.164060530	0.208805980	0.144196300
H 	3.437160390	-0.214215730	1.111578560
H 	2.578637210	0.006094810	-2.561498370
H 	1.299984440	0.923660710	-1.748626160
H 	0.962918160	-0.696269550	-2.377711590
H 	3.573340270	-2.072271370	-1.383472570
H 	1.937089240	-2.731735520	-1.224001790
H 	2.954576410	-2.533499640	0.210905390
H 	4.066095360	0.295894600	-0.463816490
H 	2.756739500	1.207478660	0.305756800
