24

C 	0.075593174	0.485328589	0.362495533
C 	0.861629454	-0.776866326	0.364143951
H 	0.245460162	-1.566703569	-0.079852151
C 	-1.165302202	0.721693855	-0.316942746
H 	0.442501211	1.344346404	0.921381949
O 	-1.821784291	1.737624052	-0.347422459
C 	1.183404528	-1.166305208	1.830852013
H 	1.761230309	-2.094277722	1.873087526
H 	0.254599770	-1.323616697	2.389652970
H 	1.752207578	-0.380625826	2.340160317
F 	-1.626466192	-0.408048554	-1.022114380
C 	1.704052311	-0.260109345	-1.989067863
C 	2.154387846	-0.671229666	-0.568473594
C 	2.831488700	-2.055728145	-0.648995655
C 	3.159850179	0.367435030	-0.028799612
H 	3.547230519	0.087300019	0.957058482
H 	2.559589944	-0.270735597	-2.675135327
H 	1.280156009	0.750963676	-1.999325578
H 	0.944878281	-0.947706676	-2.379699411
H 	3.673418325	-2.014833528	-1.351452321
H 	2.129997600	-2.818379379	-1.009579784
H 	3.227793345	-2.381972860	0.318104645
H 	4.015665019	0.443006918	-0.710726721
H 	2.711545512	1.364870045	0.047923487
