24

C 	0.045534618	0.468369661	0.341929396
C 	0.868683029	-0.770421262	0.384820238
H 	0.270924628	-1.590424344	-0.028803353
C 	-1.187022549	0.648416223	-0.373580593
H 	0.379905537	1.354441052	0.880077417
O 	-1.866981000	1.646116766	-0.460602389
C 	1.215223523	-1.105144045	1.859241630
H 	1.827820973	-2.010482102	1.921866283
H 	0.297768181	-1.279331081	2.432150457
H 	1.761346319	-0.285835029	2.340372970
F 	-1.608926590	-0.524978391	-1.040333480
C 	1.704939852	-0.195028410	-1.964942355
C 	2.153942938	-0.666205990	-0.561267832
C 	2.783268966	-2.070527943	-0.688900625
C 	3.198891031	0.323084856	0.000081526
H 	3.603865835	-0.011603387	0.961863167
H 	2.549198339	-0.233006110	-2.663933267
H 	1.337128574	0.838196139	-1.940821919
H 	0.903572198	-0.830009223	-2.360621832
H 	3.625079232	-2.038430362	-1.392233838
H 	2.053423979	-2.795570374	-1.070840336
H 	3.167490924	-2.441137869	0.267757714
H 	4.039605783	0.407579449	-0.699961901
H 	2.778442779	1.327361248	0.133956170
