63

C 	-1.829726110	-0.255338245	1.883623267
C 	-0.562445608	-0.719977401	1.772149897
C 	-0.092372364	-2.009303975	2.281800761
O 	1.077795448	-2.375624243	2.066775017
H 	-0.954998812	-0.140600783	-1.125637967
H 	-2.567837647	-0.863970491	2.407298446
H 	0.190344621	-0.144351392	1.245121162
C 	-1.642729247	-2.824691646	-1.323072624
H 	-1.445889775	-3.887286314	-1.507728794
H 	-2.730913660	-2.683853787	-1.323648598
H 	-1.277994384	-2.571901420	-0.321824063
H 	2.194672347	-3.451111708	-2.785715910
H 	0.787706494	-4.224657590	-2.033574970
H 	0.743846197	-3.779105443	-3.749049534
H 	5.130254427	1.200989639	1.843407234
H 	4.200794497	-0.169439104	2.475831883
H 	5.229326005	-0.392417221	1.046243097
N 	2.650545874	-0.511122010	0.248863285
C 	1.994632445	-0.572455467	-0.972560963
N 	1.151577795	-1.666113824	-1.096122439
C 	3.395912535	0.694939831	0.630685226
H 	2.311718282	-1.120572885	0.995943465
C 	0.575707418	-2.067971532	-2.385030545
H 	1.191168021	-2.363496269	-0.359702770
H 	3.797472956	1.098585615	-0.303263285
C 	1.099556280	-3.466131676	-2.762717951
C 	4.561429462	0.309420394	1.557229596
H 	2.669673812	3.083394290	-0.453002273
H 	0.962529520	-1.341307376	-3.107706607
C 	2.494086052	1.769960159	1.242444555
C 	1.901229797	1.599284860	2.504440681
C 	1.080944596	2.590391135	3.050030579
C 	0.844101796	3.775500185	2.343475911
C 	1.423771824	3.953724819	1.084060522
C 	2.235876525	2.953917656	0.536165700
H 	2.076266821	0.683689090	3.065480069
H 	0.624619041	2.438087063	4.025970108
H 	0.203781497	4.545834517	2.767134695
H 	1.238670074	4.867553354	0.522903929
C 	-0.988726404	-1.922491860	-2.392560694
C 	-1.539903303	-2.293828327	-3.787802541
H 	-2.610873956	-2.062260531	-3.843985108
H 	-1.420692909	-3.360182426	-4.008919349
H 	-1.032711533	-1.721902301	-4.575669803
C 	-1.341842367	-0.448413087	-2.098654893
H 	-0.909511671	0.217735394	-2.854145558
H 	-2.429621293	-0.306526028	-2.092147489
O 	2.149067895	0.269568566	-1.867366903
C 	-1.038011661	-2.920515466	3.053096233
H 	-1.467945076	-2.404082828	3.919910576
H 	-0.486820110	-3.801999428	3.387517085
H 	-1.870964963	-3.237071667	2.412165188
C 	-3.439298146	3.347925737	0.244282492
C 	-2.068598622	3.083011884	0.118184321
C 	-1.522536107	1.921764511	0.655315666
C 	-2.342372927	0.992448606	1.333712462
C 	-3.719792667	1.278041227	1.461771423
C 	-4.264947045	2.442045532	0.920833975
H 	-1.421246143	3.786186052	-0.399447517
H 	-0.458704744	1.740485314	0.548200065
H 	-4.360754260	0.569954398	1.984583341
H 	-5.328966016	2.643105937	1.023788850
H 	-3.860340104	4.256168475	-0.181559523
