12

C 	0.101498418	0.855911915	0.310779691
C 	1.632771522	-1.471873493	0.682870620
H 	0.572896062	-3.144659985	0.070928678
C 	-2.358780035	0.945524958	-0.815438725
H 	0.899705751	2.663452849	0.897182286
O 	-3.581356871	2.920000480	-1.159207572
C 	2.595349160	-1.839288257	3.413755719
H 	3.804691658	-3.514802134	3.525315474
H 	1.023476123	-2.090048905	4.733883033
H 	3.706769584	-0.211500075	4.043207069
H 	-3.162990895	-0.912548349	-1.401899807
H 	3.304788763	-1.354471650	-0.559027399
