12

C 	0.118285152	0.813808502	0.276822132
C 	1.686165022	-1.476331882	0.666012515
H 	0.637869670	-3.140140535	0.030802576
C 	-2.369437774	0.809610926	-0.803423974
H 	0.886030997	2.642961840	0.840772863
O 	-3.507141778	-1.108924833	-1.517628948
C 	2.586120883	-1.817344743	3.415926271
H 	3.788908967	-3.493405087	3.566357371
H 	0.979205786	-2.064387548	4.693812153
H 	3.680266765	-0.186202405	4.067880500
H 	3.372713711	-1.320225272	-0.548615346
H 	-3.275881654	2.698371044	-0.980381529
