12

C 	0.053710646	0.452929076	0.164457535
C 	0.864025485	-0.778881913	0.361359568
H 	0.303163535	-1.664082405	0.037533837
C 	-1.248212645	0.500350261	-0.431511589
H 	0.476103784	1.409438553	0.474768423
O 	-1.895172441	1.545197707	-0.613426235
C 	1.373399633	-0.973309433	1.806481732
H 	2.013356122	-1.859953186	1.865516612
H 	0.541600242	-1.106006252	2.505063020
H 	1.961537991	-0.111921020	2.139573038
H 	-1.673782700	-0.482899785	-0.741853429
H 	1.748818899	-0.716755533	-0.295824560
