12

C 	0.067034631	0.459233782	0.159216454
C 	0.872731214	-0.771670618	0.354056902
H 	0.304166245	-1.649725583	0.024849555
C 	-1.241191608	0.489590012	-0.419388242
H 	0.483722820	1.419012967	0.466742628
O 	-1.900611792	1.525000548	-0.592317122
C 	1.364446910	-0.971270668	1.801648759
H 	1.985024509	-1.870298025	1.870248255
H 	0.521572608	-1.084618190	2.490271022
H 	1.964000868	-0.119563981	2.138492271
H 	-1.662099510	-0.497057535	-0.721961417
H 	1.759751656	-0.714526630	-0.299721116
