26

H 	2.259490873	0.843837420	-0.264413650
C 	4.114942029	-0.101456153	0.246141659
C 	2.785490019	-0.068056034	-0.019114738
C 	1.959951388	-1.267789640	0.007353852
O 	0.726850854	-1.297714686	-0.229439114
H 	4.554505361	-1.069703180	0.483498953
C 	6.419414232	0.710943889	0.569773426
C 	7.394028999	1.703153654	0.604937599
C 	7.043694964	3.031190271	0.328937703
C 	5.719650480	3.357310707	0.019849869
C 	4.764045636	2.350366997	-0.008929862
C 	5.065867113	0.996984269	0.260834473
H 	6.687797628	-0.321584534	0.783085324
H 	8.422434795	1.447082294	0.845353951
H 	7.797303877	3.814491624	0.352752368
H 	5.416644271	4.377575682	-0.198811313
F 	3.484011018	2.706512585	-0.312565971
O 	2.589151762	-2.413296636	0.310977988
C 	1.766801828	-3.625075557	0.338308001
H 	1.320029518	-3.793822305	-0.644967104
H 	0.978439381	-3.523034402	1.088569291
H 	2.461400698	-4.423493710	0.599965431
B 	-0.272440667	0.057467131	-0.640712434
F 	-0.142906513	0.898346312	0.442798437
F 	-1.488446042	-0.545238892	-0.777540766
F 	0.290962437	0.534329114	-1.803870664
