34

H 	1.354535380	2.007471460	-0.792997690
C 	3.282141140	1.112145870	-0.490279670
C 	1.899077050	1.112069030	-0.502403820
C 	1.056565450	0.102116580	0.137183000
O 	0.053547550	0.470462550	0.837648070
H 	3.772786310	0.167443890	-0.266516100
H 	4.256288250	2.588429170	1.549602700
H 	4.329378280	0.807845800	2.077850170
H 	2.730578080	1.723083780	2.147994140
C 	3.735305910	1.656837080	1.743192110
N 	1.337167680	-1.226964140	0.058583650
C 	2.173998380	-1.830560690	-0.988832200
C 	0.568825330	-2.171027860	0.888066180
H 	2.435658410	-1.084696860	-1.739443250
H 	1.608283800	-2.635531020	-1.474723390
H 	3.090330760	-2.260850810	-0.563454340
H 	1.203458040	-3.036391890	1.105920600
H 	-0.333799150	-2.511469060	0.362059770
H 	0.270968180	-1.681719490	1.816231330
O 	6.195967400	1.068667500	-0.390641690
H 	5.597254860	0.702050230	0.283477360
C 	5.528777440	2.036196450	-1.119378810
C 	6.330497860	2.947934110	-1.816639010
C 	5.740454340	3.972416940	-2.554362890
C 	4.343277810	4.098065610	-2.593308060
C 	3.548153540	3.182110750	-1.910899810
C 	4.113316490	2.120328000	-1.170268560
H 	7.410886970	2.843800950	-1.751827110
H 	6.369463550	4.679890890	-3.090429080
H 	2.467318750	3.283889290	-1.957561790
H 	3.879012670	4.902968040	-3.157674700
Zn	-0.224008670	2.413500760	1.441854160
Cl	-0.787831750	3.653737230	-0.244452730
Cl	0.339936130	2.477127390	3.528798860
