34

H 	1.352840392	2.039762768	-0.706902418
C 	3.281754652	1.132816797	-0.440999946
C 	1.898732771	1.138257353	-0.438439985
C 	1.058813413	0.108458412	0.169147171
O 	0.050475201	0.454022611	0.871842842
H 	3.768382325	0.183733862	-0.229229556
H 	4.437051117	2.504157512	1.604260309
H 	4.212900138	0.737496910	2.141092598
H 	2.777636089	1.891262714	2.153377891
C 	3.771964612	1.665831792	1.782857000
N 	1.343217731	-1.216624833	0.045626641
C 	2.171358135	-1.783027834	-1.027829688
C 	0.576349905	-2.192603893	0.834724341
H 	2.436769788	-1.010617940	-1.748906650
H 	1.597184909	-2.562964612	-1.543578275
H 	3.085382942	-2.237944396	-0.624379136
H 	1.230805078	-3.036972261	1.076252407
H 	-0.288002563	-2.562914516	0.266495922
H 	0.220147935	-1.720795698	1.750367030
O 	6.185346681	1.115835161	-0.313755476
H 	5.582331472	0.774772818	0.369452530
C 	5.522951999	2.052051323	-1.083372192
C 	6.323687079	2.935684084	-1.816075512
C 	5.731611200	3.924903835	-2.598501195
C 	4.334726198	4.042745938	-2.648173144
C 	3.540916201	3.154348918	-1.929578345
C 	4.108449155	2.128392507	-1.143333584
H 	7.403949627	2.838493887	-1.744871562
H 	6.359178896	4.613104540	-3.160045103
H 	2.460005195	3.241558925	-1.991807167
H 	3.869969881	4.819854855	-3.249206156
Zn	-0.235448229	2.397213377	1.465452448
Cl	-0.911767996	3.590477369	-0.211929003
Cl	0.417900293	2.530605246	3.522332362
