31

H 	2.025995044	0.939107923	0.106412174
C 	0.000000000	0.000000000	0.000000000
C 	1.494038469	0.000000000	-0.000000000
C 	2.304904794	-1.181097576	0.000000000
O 	3.556151385	-1.214216703	0.132660728
H 	-0.359340602	-0.863708566	-0.571573099
H 	-1.675916389	1.268439826	-0.566589976
H 	-0.272865016	1.396476770	-1.655434945
C 	-0.581842550	1.291679170	-0.609129741
H 	-0.238681727	2.177160055	-0.062603344
O 	1.620044694	-2.336934495	-0.168521663
C 	2.413103601	-3.563639227	-0.136069856
H 	2.930093657	-3.647768306	0.823837185
H 	3.147496571	-3.557256757	-0.946257369
H 	1.688108469	-4.367448716	-0.266637903
C 	-1.196386536	-0.647430272	4.133316384
C 	-0.501005051	0.514172091	3.778860403
C 	-0.115847567	0.724049481	2.452960575
C 	-0.430673926	-0.221759365	1.461640226
C 	-1.112430245	-1.391578731	1.827577197
C 	-1.502539342	-1.599715320	3.153710001
H 	-0.250466298	1.253256770	4.536396783
H 	0.436816382	1.623054683	2.192750579
H 	-1.342257854	-2.136771665	1.068877086
H 	-2.044567428	-2.504056985	3.422185550
H 	-1.493739451	-0.811985263	5.166486621
Sn	5.163633524	0.418457496	0.755110719
Cl	4.490847058	1.460378555	-1.277180483
Cl	6.528596138	-1.508462725	0.665003414
Cl	6.834287308	2.006644831	1.392512757
Cl	3.714048405	0.710589750	2.622455867
