31

H 	1.596488417	2.265216583	0.866159525
C 	3.636962334	1.431189324	0.493643907
C 	2.143768470	1.392833210	0.526075956
C 	1.348868661	0.317939582	0.011067544
O 	0.094658419	0.316010380	-0.095077280
H 	4.025130764	0.412153983	0.606365722
H 	5.312812375	2.351045059	1.534821895
H 	3.942572882	1.938870447	2.594579321
C 	4.220368506	2.324537077	1.607009033
H 	3.848860031	3.352137444	1.526102979
O 	2.053733803	-0.771913656	-0.374648597
C 	1.276225792	-1.872435984	-0.939566243
H 	0.730923408	-1.528442704	-1.822794346
H 	0.567239575	-2.250506613	-0.197825912
H 	2.015406396	-2.629995693	-1.201274045
C 	4.713246871	2.745769317	-3.512389302
C 	4.013976804	3.604945912	-2.657198414
C 	3.667318055	3.185171600	-1.371110392
C 	4.025066627	1.902666242	-0.919909759
C 	4.710471784	1.040977645	-1.788754641
C 	5.062049279	1.462537599	-3.074373025
H 	3.730429477	4.599312143	-2.994413340
H 	3.111215890	3.856104896	-0.721529043
H 	4.973435897	0.040104208	-1.452806230
H 	5.607335843	0.790291546	-3.733505199
H 	4.980615606	3.071890669	-4.514934394
Sn	-1.552617318	2.012184914	0.120659734
Cl	-0.830992252	2.043970039	2.389292719
Cl	-2.888718500	0.216868134	-0.638244145
Cl	-3.262907632	3.673769612	0.304365388
Cl	-0.165481982	3.151176923	-1.445280536
