29

H 	1.648306287	1.975955176	-0.915984612
C 	3.523525710	1.136002983	-0.330320877
C 	2.153842389	1.126970314	-0.473602321
C 	1.266389827	0.082162066	-0.012656030
O 	-0.001024834	0.212838635	0.031317729
H 	4.031213832	0.229691534	-0.004518396
H 	2.727626015	1.918569670	2.181918094
H 	4.365304155	2.686576207	1.748433455
H 	4.295186092	0.920359875	2.322597871
C 	3.778543285	1.798324656	1.948422585
N 	1.768177270	-1.109109938	0.415418122
H 	1.102113006	-1.827475526	0.675735763
H 	2.717933824	-1.387434972	0.211017114
C 	5.791383253	1.858474360	-1.031476229
C 	6.677425192	2.766685031	-1.610022318
C 	6.168294207	3.971966505	-2.086418654
C 	4.813966331	4.294095364	-2.001743311
C 	3.941921204	3.373146325	-1.425886295
C 	4.413033588	2.137643712	-0.934326911
H 	6.173781464	0.914439363	-0.647808568
H 	7.739821686	2.555497209	-1.692917868
F 	7.025659718	4.872008636	-2.652777725
H 	4.460861546	5.249166451	-2.380376174
H 	2.888726613	3.627426289	-1.350641139
Sn	-1.355363960	2.062727119	0.043836461
Cl	-0.662405398	2.365432844	-2.224595094
Cl	0.134128379	2.853671543	1.749976266
Cl	-2.819401304	3.964052889	0.119831093
Cl	-2.972640618	0.414932898	0.562143978
