28

H 	2.542058110	0.616836090	-0.591848370
C 	4.286118190	-0.173786370	0.357571310
C 	3.007459900	-0.237278610	-0.104243070
C 	2.157824830	-1.404180210	-0.002360950
O 	0.953920400	-1.349649380	-0.397084560
H 	4.715380750	-1.048543010	0.847346850
C 	4.797900990	2.187044340	-0.361351630
C 	5.686965390	3.257404670	-0.408793900
C 	6.960914040	3.161696160	0.172644920
C 	7.316761580	1.967934840	0.797612570
C 	6.455544580	0.880203020	0.859972930
C 	5.170422780	0.978939350	0.275570570
H 	3.818289450	2.284580190	-0.820264310
H 	5.393050470	4.181539130	-0.901116010
H 	7.663860810	3.990067760	0.144537840
F 	8.557927740	1.861839770	1.368607750
H 	6.774830810	-0.032582560	1.357258510
C 	1.570674730	-3.809082410	0.673618630
C 	2.650801990	-2.725175690	0.555640370
H 	1.132913260	-4.040355920	-0.302427280
H 	0.759383320	-3.485539380	1.333909230
H 	2.010223430	-4.724121550	1.084883880
H 	3.476424070	-3.065380070	-0.088338590
H 	3.107320010	-2.525965850	1.536142610
Al	-0.211801840	0.032174440	-0.939975990
F 	0.794151360	1.203000890	-1.640660870
F 	-0.860832370	0.511158120	0.534293210
F 	-1.239650320	-0.740154100	-2.013356370
