28

H 	2.512714846	0.673654720	-0.455318545
C 	4.295067350	-0.166174646	0.372354867
C 	2.994368891	-0.199593919	-0.021172526
C 	2.139102971	-1.359570869	0.094566774
O 	0.931317989	-1.297443271	-0.280099096
H 	4.740338498	-1.060656106	0.808661308
C 	4.787554191	2.213887959	-0.289018320
C 	5.685819507	3.274469600	-0.362045981
C 	6.997094131	3.140132866	0.117330774
C 	7.377426699	1.919116166	0.668365632
C 	6.508761856	0.840472375	0.754442106
C 	5.187437839	0.977455531	0.271674267
H 	3.777860449	2.341804003	-0.667112754
H 	5.370887096	4.219913984	-0.796115392
H 	7.711084407	3.957602147	0.068167571
F 	8.652212903	1.775335160	1.140670328
H 	6.852190500	-0.093576816	1.191743759
C 	1.564375441	-3.785911458	0.686892988
C 	2.627426937	-2.681481996	0.654209455
H 	1.188447951	-4.001169743	-0.318085577
H 	0.710278642	-3.493089831	1.305175300
H 	1.996442199	-4.702933780	1.101140988
H 	3.496355272	-2.994719096	0.057050818
H 	3.019816665	-2.489684233	1.663914195
Al	-0.247183594	-0.016201010	-1.001016689
F 	0.704457261	1.363626636	-1.253215202
F 	-1.373774166	0.155057240	0.228343708
F 	-0.759044272	-0.757697953	-2.413715475
