24

H 	  1.953472	  0.922562	 -0.025477
C 	  0.000000	  0.000000	  0.000000
C 	  1.378379	  0.000000	 -0.000000
C 	  2.121108	 -1.225979	 -0.000000
O 	  3.363531	 -1.330938	 -0.042763
H 	 -0.499011	 -0.960531	  0.134111
H 	  0.045244	  0.574930	 -2.700823
H 	 -1.566935	 -0.260986	 -2.290127
H 	 -0.016193	 -1.276001	 -2.512625
C 	 -0.487322	 -0.309720	 -2.372678
H 	  1.523428	 -2.161851	  0.043689
C 	 -2.555547	  3.394029	  0.547826
C 	 -3.053248	  2.094870	  0.699615
C 	 -2.210656	  0.999715	  0.509044
C 	 -0.853807	  1.180135	  0.169594
C 	 -0.367430	  2.495307	  0.014588
C 	 -1.211436	  3.588307	  0.200907
H 	 -4.095018	  1.936836	  0.969175
H 	 -2.598409	 -0.010747	  0.627092
H 	  0.671365	  2.662943	 -0.256959
H 	 -0.822185	  4.596265	  0.077314
H 	 -3.210176	  4.250200	  0.693393
I 	  4.918772	  0.838291	 -0.353736
I 	  6.552150	  3.081937	 -0.724211
