24

H 	1.953471969	0.922562417	-0.025477413
C 	0.000000000	0.000000000	0.000000000
C 	1.378378693	0.000000000	0.000000000
C 	2.121108163	-1.225979321	0.000000000
O 	3.363530908	-1.330937995	-0.042762630
H 	-0.499011158	-0.960531291	0.134110674
H 	0.045244483	0.574929874	-2.700823147
H 	-1.566935335	-0.260986219	-2.290127010
H 	-0.016193237	-1.276000520	-2.512624863
C 	-0.487321579	-0.309719834	-2.372677936
H 	1.523428118	-2.161850803	0.043688626
C 	-2.555546789	3.394028994	0.547826187
C 	-3.053248011	2.094870242	0.699615461
C 	-2.210655809	0.999714694	0.509043519
C 	-0.853806570	1.180134652	0.169594004
C 	-0.367429679	2.495306843	0.014587778
C 	-1.211435522	3.588307281	0.200906510
H 	-4.095017621	1.936836362	0.969174938
H 	-2.598409184	-0.010746826	0.627091748
H 	0.671364524	2.662943299	-0.256958710
H 	-0.822184846	4.596265486	0.077313703
H 	-3.210176456	4.250199592	0.693392712
I 	4.918772399	0.838291171	-0.353735728
I 	6.552150179	3.081937351	-0.724210868
