24

H 	0.310172740	-1.992620130	-0.200419940
C 	-0.814001870	-0.144026680	-0.283656440
C 	0.334993430	-0.905077040	-0.229374370
C 	1.625360330	-0.276860870	-0.179846070
O 	2.705232290	-0.898032160	-0.106422260
H 	-0.684918230	0.931731250	-0.410143430
H 	-1.314956710	-0.632250700	2.391690170
H 	-2.045037140	1.019642970	1.940241530
H 	-0.216882440	0.869626890	2.287849620
C 	-1.169545340	0.395406820	2.079007880
H 	1.634217130	0.832642150	-0.214600380
C 	-4.831234620	-1.486769160	-0.949944280
C 	-3.832776790	-2.420486880	-0.639721190
C 	-2.520675240	-2.002400390	-0.419337000
C 	-2.178372540	-0.635853720	-0.503879790
C 	-3.194672090	0.291857000	-0.817251200
C 	-4.506606240	-0.127429610	-1.040283330
H 	-4.080460560	-3.477603540	-0.570138890
H 	-1.760155800	-2.739772690	-0.175451840
H 	-2.944911140	1.349723050	-0.883998310
H 	-5.275537870	0.603157350	-1.282245260
H 	-5.853839870	-1.817240810	-1.119595700
I 	4.857392860	0.696541670	-0.133832460
I 	6.992571850	2.496699200	-0.188177670
