24

H 	1.466317540	2.374752780	-0.223308630
C 	3.208899030	1.134602700	-0.522414580
C 	1.885969000	1.371510920	-0.217144640
C 	1.000949880	0.302765860	0.148780390
O 	-0.198483200	0.422549540	0.473605740
H 	3.528034700	0.093607080	-0.594105300
H 	3.916108950	2.068502610	1.980803490
H 	5.240457280	0.904914780	1.380107200
H 	3.661312420	0.227740380	2.111190580
C 	4.218342700	1.064893090	1.705193650
H 	1.435424800	-0.720559110	0.137604800
C 	5.991271850	3.936603610	-2.190428690
C 	6.251255390	2.561555310	-2.233679830
C 	5.342814340	1.662692810	-1.673040980
C 	4.149152180	2.117851470	-1.073968210
C 	3.900864010	3.506794280	-1.037098430
C 	4.815798720	4.404256660	-1.585506060
H 	7.164169090	2.192870250	-2.696507600
H 	5.548089630	0.593548640	-1.702844180
H 	2.995774940	3.885429400	-0.569346190
H 	4.612158950	5.472230450	-1.546729320
H 	6.701781660	4.640834230	-2.618382700
I 	-1.326208500	2.849456280	0.711041610
I 	-2.513444560	5.368810750	0.987698310
