24

H 	1.463019187	2.374095861	-0.241161491
C 	3.209810174	1.135184777	-0.526895314
C 	1.884656268	1.371793963	-0.230397358
C 	1.004297956	0.303152003	0.140609332
O 	-0.194148439	0.419855333	0.467053531
H 	3.527140388	0.094073067	-0.597649188
H 	3.891009629	2.072469182	1.979995657
H 	5.229201351	0.924109727	1.382447104
H 	3.653925806	0.230363480	2.104792923
C 	4.204431579	1.073152040	1.702429581
H 	1.441483584	-0.718497481	0.131302212
C 	5.995913911	3.933156805	-2.188022710
C 	6.261815605	2.559472594	-2.217141925
C 	5.348829381	1.661619599	-1.664004408
C 	4.150128581	2.116886193	-1.076921864
C 	3.898056514	3.504689164	-1.049905401
C 	4.813127864	4.400777282	-1.598887183
H 	7.177375030	2.189670909	-2.673122836
H 	5.556270819	0.593083331	-1.686782511
H 	2.987136012	3.883620100	-0.594309024
H 	4.605234994	5.467884864	-1.570025833
H 	6.706552840	4.636249216	-2.616287913
I 	-1.320610035	2.845689848	0.726758586
I 	-2.497848198	5.365662915	1.047646462
