24

H 	2.573834850	0.698673140	0.062791310
C 	4.402235130	-0.371984870	0.233688190
C 	3.033538500	-0.282547070	0.137021830
C 	2.169279330	-1.413513440	0.123912950
O 	0.904912410	-1.314821550	0.026469360
H 	4.896796020	-1.339252200	0.309847860
C 	6.700773180	0.591780920	0.354893910
H 	7.049701860	1.076002670	1.275803260
H 	7.186204110	1.071260510	-0.504338860
H 	6.994653270	-0.461610970	0.379168070
N 	5.244239220	0.678930290	0.239176690
H 	4.837305070	1.608241360	0.166819750
C 	1.643700450	-3.930772060	0.257243100
C 	2.721990720	-2.839227290	0.228909420
H 	1.029069700	-3.902205650	-0.647696800
H 	0.974761130	-3.802130890	1.114014580
H 	2.117337090	-4.916708520	0.328371900
H 	3.399417660	-2.999529840	-0.622933820
H 	3.345199340	-2.898620560	1.132784550
Sn	-0.551506030	0.437636350	-0.219893690
Cl	0.325116130	1.189715640	1.881197170
Cl	-2.103307170	-1.352295670	-0.279543330
Cl	-2.142797710	2.224867800	-0.475898240
Cl	0.707081940	0.945604620	-2.193824510
