24

H 	2.569937203	0.683238892	0.021390994
C 	4.398044905	-0.373400896	0.228066501
C 	3.031443289	-0.295041974	0.113659098
C 	2.171791146	-1.427879973	0.105733533
O 	0.909246646	-1.329390197	-0.000383716
H 	4.898549297	-1.335362552	0.324671175
C 	6.682963756	0.611588470	0.366691345
H 	7.014281044	1.111077929	1.285783118
H 	7.178393523	1.082701729	-0.490697321
H 	6.984938442	-0.438283428	0.410775868
N 	5.229865932	0.684723096	0.227377413
H 	4.815360875	1.608971329	0.141970117
C 	1.638590418	-3.938014209	0.261486550
C 	2.721117740	-2.852079930	0.223959015
H 	1.025126135	-3.914924501	-0.643903278
H 	0.968902071	-3.797569829	1.115417658
H 	2.106772564	-4.925315430	0.342927680
H 	3.398551241	-3.021827616	-0.625461634
H 	3.342859155	-2.905513011	1.128628193
Sn	-0.525907286	0.440803133	-0.215123970
Cl	0.376212202	1.154093370	1.886846925
Cl	-2.107598696	-1.322889385	-0.263695001
Cl	-2.084786739	2.258225664	-0.435860149
Cl	0.714881336	0.939562039	-2.202275464
