33

H 	1.649612912	2.199298407	-0.905326973
C 	3.459892882	1.078473709	-0.839677705
C 	2.091245371	1.211847620	-0.828452883
C 	1.151060335	0.142501279	-0.653457453
O 	-0.078028002	0.392509836	-0.486301916
H 	3.895349615	0.082648829	-0.847276819
H 	3.147761647	1.759785590	1.852314202
H 	4.933112318	1.256828843	1.602366823
H 	3.605346239	-0.043692929	1.781730420
C 	3.882714483	0.993995111	1.636404337
C 	1.149870578	-1.996684361	0.699097525
C 	1.541411372	-1.322335846	-0.635373882
H 	0.076507354	-1.888485116	0.878255932
H 	1.682954567	-1.542529200	1.542219575
H 	1.397634232	-3.062880222	0.669649530
H 	0.993228738	-1.801675643	-1.458043549
H 	2.608081339	-1.453177217	-0.838288864
C 	5.750587924	1.842448069	-1.382000129
C 	6.683050817	2.842507490	-1.658053188
C 	6.299982516	4.187756427	-1.649993193
C 	4.968347218	4.492133646	-1.364747304
C 	4.016662475	3.521624292	-1.090855110
C 	4.405629926	2.165314538	-1.101166602
H 	6.056537272	0.798699108	-1.386519874
H 	7.713529214	2.578941190	-1.882609760
H 	7.004383890	4.988078766	-1.858522709
F 	4.588371680	5.804105080	-1.351416385
H 	2.999615900	3.827048213	-0.865824865
Ti	-1.350198191	2.060410605	-0.070429262
Cl	-2.583102523	3.884167983	0.382997227
Cl	0.108589720	2.426045704	1.637248320
Cl	-0.845756064	2.691443959	-2.180532583
Cl	-2.968088555	0.550169410	0.216437375
