34

H 	1.996919209	0.852182917	0.468176757
C 	0.000000000	0.000000000	0.000000000
C 	1.506166945	-0.000000000	0.000000000
C 	2.305482407	-1.216421796	-0.000000000
O 	3.181161247	-1.412049660	0.910095789
H 	-0.392445547	-0.760995641	-0.684254791
H 	-1.687447922	1.351046073	-0.264191078
H 	-0.356515256	1.613426922	-1.418050591
C 	-0.597768852	1.364981531	-0.377684908
H 	-0.197785719	2.164296715	0.255203459
N 	2.101480511	-2.190492731	-0.929543053
C 	2.766182614	-3.491199001	-0.779183809
C 	1.428804795	-1.949960057	-2.208431246
H 	2.994631903	-3.659465090	0.273378226
H 	3.700225192	-3.524380934	-1.357067813
H 	2.093679900	-4.273191819	-1.149628327
H 	0.504725888	-2.538003078	-2.284420963
H 	2.095921263	-2.245424126	-3.028768977
H 	1.198335378	-0.889443839	-2.315923347
O 	-0.862302540	-1.848935849	5.345721608
H 	-0.887133996	-2.822027987	5.374035249
C 	-0.701825587	-1.436197087	4.046510082
C 	-0.403834947	-0.083224147	3.831375924
C 	-0.209213034	0.384536647	2.535269377
C 	-0.328848216	-0.473931970	1.424846364
C 	-0.624122099	-1.827521238	1.661162929
C 	-0.816739321	-2.308840083	2.954006029
H 	-0.291479586	0.577395586	4.686350734
H 	0.067707611	1.424646777	2.393849372
H 	-0.697308530	-2.515735092	0.821013296
H 	-1.038312762	-3.361817887	3.119983820
Zn	2.999395788	-0.701048877	2.832285290
Cl	2.729616858	-2.459671608	4.065144462
Cl	3.270373989	1.452421610	2.915674232
