34

H 	1.588818590	1.950051570	1.031682260
C 	3.581870380	1.069889710	0.594435320
C 	2.077576160	1.044419950	0.673653810
C 	1.242098850	0.221417730	-0.190103670
O 	0.334098200	0.760100600	-0.912427350
H 	3.978355940	0.066061710	0.400402140
H 	5.321307840	1.736208080	1.723987800
H 	4.058881260	0.966671420	2.718498770
C 	4.239407030	1.632854540	1.866187650
H 	3.832175940	2.617299510	2.121759350
N 	1.443120210	-1.123061950	-0.283267700
C 	0.709991330	-1.904152610	-1.289652000
C 	2.174498750	-1.895597180	0.726667510
H 	0.438533780	-1.255424910	-2.123073150
H 	-0.205084170	-2.335504610	-0.859973680
H 	1.355131260	-2.718522330	-1.638705710
H 	3.067784780	-2.363110280	0.291624450
H 	1.523054990	-2.688322420	1.117879770
H 	2.466337330	-1.247696260	1.554468810
O 	4.206926610	4.155370100	-4.188483180
H 	4.222855380	3.579744900	-4.974460760
C 	4.094576320	3.380257240	-3.059759270
C 	3.815157320	4.037977830	-1.853016580
C 	3.676191010	3.301603200	-0.679997060
C 	3.834590610	1.901035830	-0.674715260
C 	4.105276120	1.258727900	-1.895730700
C 	4.243721680	1.984560660	-3.077460140
H 	3.674365830	5.115461040	-1.856307290
H 	3.414695880	3.825095170	0.235027080
H 	4.207823110	0.174858310	-1.921880460
H 	4.449951310	1.470958990	-4.015502930
Zn	0.482571860	2.694544130	-1.607524190
Cl	0.683887270	2.529769490	-3.758817890
Cl	0.217243880	4.138480840	-0.001527420
