34

H 	1.586066301	1.948858018	1.106072288
C 	3.582033709	1.084515423	0.656497476
C 	2.077940600	1.053226209	0.729049318
C 	1.250990339	0.255932718	-0.164854229
O 	0.329268291	0.809866951	-0.855465096
H 	3.988011552	0.079719507	0.492486345
H 	5.311448123	1.784131260	1.780003762
H 	4.042591394	1.040329347	2.784184306
C 	4.228914517	1.683433672	1.915858513
H 	3.818720617	2.673288726	2.142501166
N 	1.475239513	-1.077565275	-0.326026975
C 	0.773683601	-1.810890176	-1.387312744
C 	2.212572461	-1.889612817	0.644963504
H 	0.492273378	-1.116735441	-2.179365066
H 	-0.132789457	-2.294594764	-0.997668077
H 	1.444138547	-2.582777560	-1.781878127
H 	3.125046998	-2.306070190	0.198371594
H 	1.577818325	-2.721967156	0.975978358
H 	2.472811764	-1.286598613	1.515603916
O 	4.149085529	4.013819501	-4.225766221
H 	4.149569394	3.411518847	-4.990985314
C 	4.059432891	3.279404461	-3.069628825
C 	3.803890244	3.976618255	-1.880424139
C 	3.681294006	3.279186796	-0.682455210
C 	3.832495658	1.879466421	-0.635114519
C 	4.084318574	1.198039030	-1.838226327
C 	4.204745457	1.884225657	-3.044401184
H 	3.667249474	5.053686104	-1.916176541
H 	3.435948956	3.832554932	0.218712508
H 	4.180498102	0.113812782	-1.831232779
H 	4.393365285	1.340275333	-3.968493321
Zn	0.437546644	2.743503889	-1.550229274
Cl	0.607664973	2.565547876	-3.700779838
Cl	0.213906880	4.183878177	0.060089081
