28

H 	-0.773768760	-2.005701996	-0.070758230
C 	0.000000000	0.000000000	0.000000000
C 	-0.993857424	-0.942919867	0.000000000
C 	-2.359440864	-0.550431480	0.000000000
O 	-3.342579544	-1.320592877	-0.223165885
H 	-0.298303704	1.048269231	0.080543475
H 	0.839277315	0.015614659	-2.965924546
H 	-0.549603817	1.194106042	-2.571571433
H 	-0.896552769	-0.640329310	-2.747606916
C 	-0.187077723	0.175557039	-2.657566646
H 	-2.599848404	0.506303911	0.194892938
C 	1.660352494	-0.251216528	1.761545378
C 	1.471620820	-0.266318074	0.205792778
C 	2.327202316	0.872366371	-0.395553453
C 	1.921210949	-1.634551890	-0.347438390
H 	1.750681877	-1.699139117	-1.427022889
H 	2.724208976	-0.384699441	1.990300601
H 	1.094060621	-1.061783812	2.231009143
H 	1.333364237	0.700766833	2.195580925
H 	3.378375629	0.734869620	-0.119019246
H 	2.004169073	1.851023203	-0.019404715
H 	2.263124230	0.888261106	-1.487347990
H 	2.991689527	-1.773443714	-0.159942139
H 	1.390136344	-2.463593480	0.131188191
Al	-3.206286632	-3.021321219	-1.042863312
F 	-2.193085601	-3.892872570	-0.012022230
F 	-2.413741635	-2.585710848	-2.473064785
F 	-4.777389397	-3.569581823	-1.189882853
