28

H 	 -0.773769	 -2.005702	 -0.070758
C 	  0.000000	  0.000000	  0.000000
C 	 -0.993857	 -0.942920	  0.000000
C 	 -2.359441	 -0.550432	  0.000000
O 	 -3.342580	 -1.320593	 -0.223166
H 	 -0.298304	  1.048269	  0.080543
H 	  0.839277	  0.015615	 -2.965925
H 	 -0.549604	  1.194106	 -2.571571
H 	 -0.896553	 -0.640329	 -2.747607
C 	 -0.187078	  0.175557	 -2.657567
H 	 -2.599848	  0.506304	  0.194893
C 	  1.660352	 -0.251217	  1.761545
C 	  1.471621	 -0.266318	  0.205793
C 	  2.327202	  0.872366	 -0.395553
C 	  1.921211	 -1.634552	 -0.347438
H 	  1.750682	 -1.699139	 -1.427023
H 	  2.724209	 -0.384699	  1.990301
H 	  1.094061	 -1.061784	  2.231009
H 	  1.333364	  0.700767	  2.195581
H 	  3.378376	  0.734870	 -0.119019
H 	  2.004169	  1.851023	 -0.019405
H 	  2.263124	  0.888261	 -1.487348
H 	  2.991690	 -1.773444	 -0.159942
H 	  1.390136	 -2.463593	  0.131188
Al	 -3.206287	 -3.021321	 -1.042863
F 	 -2.193086	 -3.892873	 -0.012022
F 	 -2.413742	 -2.585711	 -2.473065
F 	 -4.777389	 -3.569582	 -1.189883
