28

H 	-0.067905460	-1.912847300	-0.698113980
C 	-1.196542660	-0.091431150	-0.556545530
C 	-0.072054500	-0.823565170	-0.673714830
C 	1.227595100	-0.153714910	-0.800199920
O 	2.306758730	-0.722559860	-0.943228510
H 	-1.081532350	0.997214870	-0.544976310
H 	-1.107978470	-0.981044960	3.760792980
H 	-0.920178070	0.506622730	2.631740550
H 	0.169856060	-0.993324220	2.380375740
C 	-0.637141050	-0.501822040	2.909947580
H 	1.177176020	0.961702150	-0.755327890
C 	-3.123504510	-0.864058310	-1.923954320
C 	-2.624875800	-0.596350000	-0.473238270
C 	-3.514861500	0.486703710	0.181302670
C 	-2.718595510	-1.906727220	0.348549960
H 	-2.337772280	-1.750838760	1.365131560
H 	-4.166387990	-1.205037800	-1.899693340
H 	-2.513109300	-1.634146780	-2.408365590
H 	-3.075180420	0.046277460	-2.534597500
H 	-4.566273050	0.174764590	0.170048450
H 	-3.438296440	1.439385610	-0.358130360
H 	-3.224501860	0.656388820	1.224756430
H 	-3.765192380	-2.229518160	0.412046790
H 	-2.145240130	-2.716608270	-0.115887840
Al	6.350533650	1.588894300	-0.039430490
F 	5.166481280	2.548285590	-0.678796750
F 	7.500501230	0.939360880	-1.033003980
F 	6.432138630	1.327997100	1.590461810
