28

H 	1.578728736	2.375394989	-0.671211170
C 	3.350432122	1.162762651	-0.802189188
C 	2.023280383	1.390231076	-0.549648435
C 	1.201335838	0.355195673	-0.028137030
O 	0.035515635	0.514871175	0.446078367
H 	3.723740562	0.145021237	-0.663683036
H 	4.679788059	2.450464480	1.662760189
H 	4.216884003	0.661760975	1.906905068
H 	2.900334047	1.993653912	2.003199144
C 	3.912051817	1.691293259	1.753924569
H 	1.598487269	-0.671731846	-0.015514031
C 	4.084882157	1.732045936	-3.051505075
C 	4.282530431	2.093682189	-1.539430925
C 	5.755236696	1.810535600	-1.163660360
C 	3.943302980	3.583323784	-1.324599733
H 	4.017794062	3.856559261	-0.266985523
H 	4.775624372	2.334787600	-3.652766192
H 	3.060187313	1.944239515	-3.372560205
H 	4.298835359	0.673914732	-3.241670476
H 	6.422978151	2.395979053	-1.805313827
H 	6.001182942	0.749920052	-1.298614602
H 	5.962472121	2.079309121	-0.123858346
H 	4.645296536	4.205799382	-1.890372960
H 	2.932774234	3.826231319	-1.668490968
Al	-0.682635404	2.181321553	0.984742217
F 	-0.650619727	3.114830481	-0.421084052
F 	0.511965793	2.665504823	2.081033585
F 	-2.188204877	1.831122328	1.618137356
