28

H 	0.282898354	-1.088844745	-1.242440927
C 	-1.194833778	0.103823042	-0.242431458
C 	0.057495089	-0.228715030	-0.614438106
C 	1.197767466	0.575830194	-0.186537481
O 	2.367347039	0.344994049	-0.502954199
H 	-1.313690120	0.983957447	0.395799790
H 	-0.974578533	-0.589009751	4.318090970
H 	-0.403248106	0.830898560	3.233507789
H 	-0.038307507	-0.938823560	2.727889960
C 	-0.481665315	-0.233838749	3.420580729
H 	0.953425052	1.456968914	0.450770488
C 	-2.379270772	-1.425376232	-1.887856946
C 	-2.475552220	-0.635280012	-0.563618204
C 	-3.635691453	0.386392614	-0.649234854
C 	-2.745094117	-1.623351643	0.609873141
H 	-2.794215277	-1.093917760	1.567851376
H 	-3.335623606	-1.919122329	-2.095441458
H 	-1.609213500	-2.203092379	-1.842240984
H 	-2.146179130	-0.760338428	-2.727301170
H 	-4.583481276	-0.129902992	-0.840731711
H 	-3.469538604	1.104580309	-1.461311499
H 	-3.736578836	0.946463232	0.288530915
H 	-3.698483373	-2.140356291	0.445352463
H 	-1.947207188	-2.371081116	0.672902279
Al	5.437978884	0.800611088	-0.653801674
F 	6.255778410	1.234605604	0.723242657
F 	5.037667870	1.994686019	-1.721947589
F 	5.406011518	-0.792757155	-1.084155186
