28

H 	0.477111294	-1.766013781	-0.104691418
C 	-0.776300430	-0.015236231	-0.225666274
C 	0.420505821	-0.685339280	-0.212425976
C 	1.645102057	0.027991506	-0.320195058
O 	2.772172179	-0.546260241	-0.308032789
H 	-0.746202144	1.061393142	-0.402136561
H 	0.363621305	0.943746951	2.298897639
H 	-1.135007126	-0.092359415	2.690269102
H 	-1.343790439	1.677509065	2.123680653
C 	-0.710765978	0.809327684	2.265000541
H 	1.617571582	1.125319630	-0.413307790
C 	-2.351235990	-0.791452850	-1.916972038
C 	-2.137826835	-0.657238811	-0.371540110
C 	-3.251970344	0.253753258	0.194540148
C 	-2.216250198	-2.055594023	0.276709653
H 	-2.003227743	-2.006928428	1.350415708
H 	-3.340505849	-1.225668113	-2.103192446
H 	-1.591192551	-1.441220218	-2.362457887
H 	-2.306461047	0.185137571	-2.412281888
H 	-4.233811424	-0.138499480	-0.092556751
H 	-3.167842448	1.274229392	-0.198451838
H 	-3.213822427	0.300959095	1.286721930
H 	-3.224491870	-2.464654846	0.148698220
H 	-1.514524838	-2.760295303	-0.181552595
Al	4.429019454	0.376568805	-0.387543842
F 	5.143612871	0.002628331	1.082387140
F 	3.872857077	1.968741609	-0.516042516
F 	5.167121013	-0.233597430	-1.762117267
