25

H 	2.152889873	0.446131879	0.148818148
C 	0.000000000	0.000000000	0.000000000
C 	1.444254261	-0.368968464	0.000000000
C 	1.995885736	-1.681262281	-0.000000000
O 	3.227825241	-1.879745291	0.231217563
H 	-0.634688237	-0.833475420	-0.320826287
H 	-1.366547720	1.508431477	-0.752677373
H 	-0.077355047	1.049756604	-1.900232403
C 	-0.309010374	1.239018674	-0.845938324
H 	0.297540683	2.092087227	-0.515955450
C 	1.891706201	-4.206439271	-0.463334897
C 	1.116349864	-2.891519359	-0.328343524
H 	2.426789471	-4.443719894	0.461408391
H 	2.635679720	-4.143615318	-1.264245794
H 	1.203642494	-5.028135971	-0.690954029
H 	0.358009740	-2.977255726	0.463986287
H 	0.556118382	-2.673868024	-1.248931973
C 	-0.478788105	-0.873233067	2.342667231
H 	-0.824106882	-0.502494511	3.313240699
H 	0.455404223	-1.431473018	2.502737459
H 	-1.237811693	-1.559584964	1.950490861
N 	-0.358104348	0.272269963	1.429035287
H 	0.251117480	0.995691773	1.816291847
I 	4.617788003	-0.200593813	1.707067643
I 	6.076816874	1.456473452	3.438594238
