25

H 	1.624034960	1.934172190	0.792881140
C 	3.696237150	1.200640080	0.605875340
C 	2.213353250	1.056387410	0.524292680
C 	1.484715910	-0.038962450	-0.021611340
O 	0.236596470	0.040968780	-0.242515220
H 	4.207089340	0.239570220	0.476498570
H 	5.254371070	2.018430930	1.876287120
H 	3.912359020	1.246068260	2.768647390
C 	4.169409810	1.867192020	1.902524450
H 	3.685023500	2.843819800	2.032934070
C 	1.246616040	-2.500317270	-0.733045720
C 	2.191360920	-1.368227250	-0.313008190
H 	0.693750060	-2.234689110	-1.639965210
H 	0.510228520	-2.709051670	0.050582300
H 	1.818359500	-3.415421060	-0.926240260
H 	2.936575000	-1.183202610	-1.101750070
H 	2.770995590	-1.655182110	0.576876360
C 	4.040792650	1.450397330	-1.905459610
H 	4.435721540	2.177723480	-2.623059100
H 	3.030957130	1.160675380	-2.233960080
H 	4.687284430	0.564842480	-1.928490100
N 	4.101927550	2.049575120	-0.562225450
H 	3.610161360	2.945953750	-0.534275050
I 	-0.900700330	2.360878780	-0.747758130
I 	-2.115486200	4.776040480	-1.495059500
