18

H 	0.348218551	-2.867615335	1.878680285
C 	-1.613476395	-0.640411944	-0.895110653
C 	0.435814071	-1.424482003	0.418566989
C 	2.934845904	-0.343451092	-0.066589357
H 	-1.291930870	0.822777413	-2.314100194
O 	4.866496425	-0.950938314	1.039762942
H 	2.982786271	1.131715891	-1.576933417
C 	-9.349505440	-2.944715848	-0.447103377
C 	-7.568219951	-4.051475632	1.161050755
C 	-5.045476053	-3.330754320	1.049331369
C 	-4.232129059	-1.476434119	-0.682966826
C 	-6.055690606	-0.381121798	-2.285347831
C 	-8.582565576	-1.105126913	-2.172526100
H 	-8.156213133	-5.485631086	2.510217876
H 	-3.698071547	-4.216104550	2.317852542
H 	-5.470963523	1.054323068	-3.635336406
H 	-9.953015710	-0.233120077	-3.430899565
H 	-11.321093097	-3.515369575	-0.351001599
