27

H 	1.507105780	1.907879900	-0.728711080
C 	3.447146060	1.050687030	-0.399167590
C 	2.069523770	1.032497400	-0.410995810
C 	1.250334690	-0.074321180	0.040682580
O 	-0.000623470	0.012754590	0.076026490
H 	3.973516730	0.122558820	-0.183324700
H 	3.663304300	2.644705820	1.807593250
H 	4.933984830	1.291748120	1.933291470
H 	3.165200270	0.962154110	2.423645490
C 	3.891306570	1.591373550	1.920433380
C 	1.889816070	-1.384834790	0.481894690
H 	2.606036970	-1.216838280	1.296483490
H 	2.437942320	-1.844857280	-0.350433970
H 	1.107904850	-2.067550910	0.821673150
C 	5.665077220	1.888004980	-1.147806190
C 	6.505386730	2.867205950	-1.680283960
C 	5.950587540	4.095571460	-2.032653270
C 	4.591580720	4.369231700	-1.870887450
C 	3.766381470	3.377531030	-1.341350490
C 	4.284642350	2.118050970	-0.968747210
H 	6.086114620	0.924751900	-0.864415490
H 	7.568046060	2.690593040	-1.822935790
F 	6.766550190	5.067544940	-2.548499010
H 	4.196481380	5.339949300	-2.158499430
H 	2.708775340	3.592013580	-1.213050230
I 	-1.396375070	2.239966260	-0.543122200
I 	-2.906925480	4.512855150	-1.159292000
