22

H 	1.925239390	0.925618704	-0.004633628
C 	0.000000000	0.000000000	0.000000000
C 	1.354024981	0.000000000	0.000000000
C 	2.204422395	-1.176757908	0.000000000
O 	3.411707729	-1.193984747	-0.002327655
H 	-0.501041224	-0.967076928	-0.002491884
C 	-2.662056686	3.340434113	-0.008688865
C 	-1.277499039	3.566435342	0.024053263
C 	-0.390752110	2.494254046	0.026922733
C 	-0.871457437	1.164669388	-0.001386319
C 	-2.268415576	0.955042432	-0.031955170
C 	-3.154892690	2.031563278	-0.036420432
H 	-0.894464889	4.584065057	0.047212616
H 	0.678384715	2.686923393	0.053886028
H 	-2.649230842	-0.064184389	-0.052292761
H 	-4.227105147	1.851424223	-0.060783973
H 	-3.350203586	4.182723338	-0.011212198
Br	1.257323645	-2.976435203	0.004383084
B 	4.869409006	0.721975603	0.118304860
F 	4.404033767	1.086266459	1.316633285
F 	4.351473415	1.297010487	-0.972868234
F 	5.975215346	-0.005582093	0.024272493
