22

H 	2.412257960	0.726229500	0.474971770
C 	4.186459410	-0.009510900	-0.471133740
C 	2.880073170	-0.060203930	-0.114453740
C 	1.954159420	-1.130864320	-0.443605610
O 	0.790161020	-1.206977160	-0.129268540
H 	4.581094230	-0.846811100	-1.046039810
C 	7.060990300	3.044532040	0.344924360
C 	5.733036940	3.222176960	0.763089750
C 	4.780379650	2.238384460	0.512739080
C 	5.135585320	1.051295940	-0.168966610
C 	6.477135870	0.889214990	-0.584910020
C 	7.430696290	1.875049770	-0.329054900
H 	5.445097450	4.132347380	1.284836720
H 	3.755058750	2.391888090	0.839679270
H 	6.762236640	-0.020064180	-1.111221840
H 	8.458788300	1.734065810	-0.655849230
H 	7.800991090	3.817064480	0.542809020
Br	2.701866640	-2.652695600	-1.558679940
B 	-0.653489270	0.262339470	1.033769150
F 	-0.898514000	0.997416480	-0.054911740
F 	0.285519070	0.678998670	1.898508520
F 	-1.485419500	-0.714006340	1.387046080
