22

H 	2.387759545	0.663576141	0.455967635
C 	4.173861142	-0.052017724	-0.471989621
C 	2.870038659	-0.127030360	-0.114493208
C 	1.966562279	-1.222146685	-0.418443211
O 	0.803405474	-1.305422737	-0.105439370
H 	4.587440759	-0.886650583	-1.036459457
C 	6.979654069	3.066482152	0.332750045
C 	5.654166916	3.205832321	0.771855747
C 	4.722461667	2.203132104	0.522018431
C 	5.097108016	1.032873626	-0.177845546
C 	6.435148114	0.909774222	-0.614726755
C 	7.367320497	1.915603852	-0.361507189
H 	5.352479934	4.101354227	1.310230367
H 	3.699806674	2.327662862	0.867808689
H 	6.733849944	0.013980851	-1.155641396
H 	8.393162035	1.803576389	-0.704701306
H 	7.703503475	3.853597495	0.531483879
Br	2.748009724	-2.770467040	-1.480468441
B 	-0.493858566	0.374605955	1.036908598
F 	-0.331130861	1.265778544	0.054766010
F 	0.329942037	0.422832080	2.089813116
F 	-1.586526781	-0.377057183	1.082390984
