35

H 	1.540627510	2.194640030	0.585692570
C 	3.547033530	1.274988070	0.420636380
C 	2.068127160	1.265267840	0.362037150
C 	1.255181320	0.166158820	-0.043730400
O 	-0.006655080	0.312169000	-0.216560950
H 	3.949239160	0.254928480	0.416508840
H 	5.155420580	2.048501530	1.669035670
H 	3.724808760	1.522344440	2.585572170
C 	4.060799280	2.021930000	1.670343530
H 	3.688914140	3.053648700	1.688272450
C 	0.829788540	-2.271910210	-0.716624730
C 	1.845642590	-1.208428050	-0.285147490
H 	0.329509530	-1.984581910	-1.647222200
H 	0.055330520	-2.408623580	0.045487950
H 	1.337192870	-3.230011250	-0.873609450
H 	2.638466480	-1.096557210	-1.042571940
H 	2.372193240	-1.516516640	0.631896260
C 	4.066610250	1.971182630	-0.918928700
C 	5.573163350	1.980337930	-1.010733630
C 	6.271266400	0.821432050	-1.394463150
C 	7.665803080	0.823409590	-1.483041180
C 	8.386290940	1.987171910	-1.183865670
C 	7.703194090	3.145174690	-0.795225300
C 	6.307354380	3.138731540	-0.705306860
H 	3.638583380	1.430781940	-1.770731890
H 	3.670641670	2.992605410	-0.945916860
H 	5.717026940	-0.083866240	-1.640906000
H 	8.190687840	-0.078068610	-1.793138130
H 	9.471789860	1.991492910	-1.258014870
H 	8.255527060	4.054210330	-0.565531110
H 	5.779704320	4.043270730	-0.407487730
Al	-1.091684180	1.846057520	-0.373966730
F 	-0.634650210	2.404014450	-1.895820350
F 	-0.559071850	2.853837340	0.877957490
F 	-2.649205490	1.254637850	-0.209872450
