35

H 	1.508688613	2.222279286	0.538285138
C 	3.531200223	1.338396186	0.388802343
C 	2.054997500	1.303916147	0.318304644
C 	1.267101002	0.181774229	-0.070014110
O 	-0.003532425	0.283568496	-0.191102586
H 	3.944222054	0.323802228	0.428699911
H 	5.111601210	2.161095911	1.640338131
H 	3.657224992	1.680450153	2.543684307
C 	4.017724578	2.137282460	1.616079888
H 	3.648985984	3.169312111	1.578989657
C 	0.901089727	-2.244604630	-0.804871728
C 	1.893277265	-1.167801075	-0.353724462
H 	0.388347392	-1.946004049	-1.724902711
H 	0.134689853	-2.418311955	-0.043048734
H 	1.429728370	-3.185613444	-0.989288743
H 	2.677412527	-1.017106293	-1.112194369
H 	2.432920577	-1.485572865	0.551941235
C 	4.070434100	1.985637902	-0.966162389
C 	5.576863822	1.963925722	-1.032274473
C 	6.256504845	0.775123144	-1.349703924
C 	7.651660648	0.738343344	-1.391821237
C 	8.392293371	1.894093455	-1.112744365
C 	7.727601076	3.083294673	-0.795804685
C 	6.330398903	3.115422806	-0.751460717
H 	3.644906472	1.424834630	-1.805670359
H 	3.690740234	3.011233349	-1.029125394
H 	5.686755864	-0.125301945	-1.576036633
H 	8.162259456	-0.187653254	-1.647280681
H 	9.479046740	1.867193138	-1.146138520
H 	8.295963152	3.986089623	-0.583114253
H 	5.817386140	4.043119060	-0.505251222
Al	-1.152573045	1.775647273	-0.206055996
F 	-0.782624625	2.454678711	-1.701290564
F 	-0.610903194	2.720365672	1.087315143
F 	-2.677741442	1.111451831	-0.028334853
