35

H 	1.998625158	0.917984585	0.263693990
C 	0.000000000	0.000000000	0.000000000
C 	1.500336068	-0.010215948	-0.000000000
C 	2.334471578	-1.165309531	-0.000000000
O 	3.509760702	-1.191968351	0.518728321
H 	-0.416676077	-0.909004002	-0.443394159
H 	-1.670224862	1.263782901	-0.600621515
H 	-0.384187608	1.118138201	-1.823306413
C 	-0.586488912	1.209103375	-0.749873326
H 	-0.141936946	2.150222228	-0.410860018
N 	1.855006537	-2.380696133	-0.493211150
C 	2.659105258	-3.584764548	-0.200617024
C 	1.181315111	-2.423375977	-1.810451563
H 	2.962811087	-3.576255352	0.846640484
H 	3.560194884	-3.623513067	-0.827148025
H 	2.037047313	-4.461827156	-0.402518136
H 	0.345189176	-3.130216688	-1.784255841
H 	1.899129127	-2.751724742	-2.574847162
H 	0.818507638	-1.434518223	-2.087106019
O 	-0.300123524	-2.503706156	1.528405358
H 	0.339139190	-2.431155002	0.784226983
C 	-0.456338705	-1.292920182	2.165456857
C 	-0.809304722	-1.339857073	3.521147419
C 	-0.982306485	-0.160358522	4.239695799
C 	-0.803715668	1.082220018	3.612220924
C 	-0.473591736	1.130299004	2.261279081
C 	-0.328109106	-0.044058634	1.502137798
H 	-0.917185531	-2.313034402	3.992840036
H 	-1.237896325	-0.206777116	5.295739011
H 	-0.341235133	2.094845316	1.780276946
H 	-0.922171847	2.003908062	4.175838797
B 	4.112951809	-0.034474841	1.518182955
F 	3.176818785	0.086018545	2.538613112
F 	4.221665256	1.119719752	0.744551757
F 	5.317734014	-0.563900106	1.909622073
