35

H 	1.548672800	2.048149050	0.778394100
C 	3.575971910	1.190008980	0.519982170
C 	2.074716960	1.136772410	0.508096250
C 	1.276680430	0.146561460	-0.138122720
O 	0.118853470	0.390791690	-0.643023050
H 	4.024630920	0.199853620	0.394203030
H 	5.221486380	1.979145110	1.711104140
H 	3.967736700	1.140167150	2.657162200
C 	4.143073420	1.811522290	1.808121320
H 	3.662944490	2.767622590	2.041417210
N 	1.777881730	-1.139958860	-0.336294820
C 	1.015621130	-2.038289470	-1.228469590
C 	2.473077410	-1.845221890	0.764748710
H 	0.704732920	-1.492943830	-2.120268510
H 	0.121562720	-2.431159050	-0.725374860
H 	1.670219910	-2.870247400	-1.506781370
H 	3.330507830	-2.403903710	0.373200490
H 	1.777954190	-2.552125450	1.239389420
H 	2.809431310	-1.137730610	1.521670980
O 	3.916684160	-0.060043220	-2.134486160
H 	3.306526650	-0.434571810	-1.461974640
C 	4.007528790	1.310530700	-2.005470300
C 	4.300723950	2.028952670	-3.172098030
C 	4.405686520	3.416933670	-3.130780340
C 	4.220308380	4.104209550	-1.920585180
C 	3.946637960	3.390262450	-0.758053270
C 	3.867577410	1.985726900	-0.763777490
H 	4.414099820	1.478563430	-4.102803670
H 	4.611248840	3.967710710	-4.046046840
H 	3.801795700	3.927008210	0.175334530
H 	4.285563100	5.188977950	-1.889605860
B 	-0.461250230	1.905656670	-0.931010590
F 	0.525413080	2.533469310	-1.687945420
F 	-0.637172400	2.494203530	0.321871760
F 	-1.631416740	1.662903100	-1.609712830
