25

H 	-1.404733801	-0.572662299	-1.315153897
C 	-0.696635260	-4.474101112	-0.511525929
C 	-0.053799272	-2.030665120	-0.795323805
C 	2.562499888	-1.193171072	-0.409740785
O 	3.295316175	0.982230244	-0.633058779
H 	0.816483671	-5.778721041	0.016485708
C 	-2.982973150	-7.790023141	-2.870687832
C 	-3.246000179	-5.719831653	-0.815291033
C 	-5.347542046	-3.858319542	-1.565791783
C 	-3.919968276	-6.989538889	1.738006671
H 	-4.125346841	-5.582656046	3.239284462
H 	-4.764703305	-8.821262801	-3.077182844
H 	-1.511391806	-9.159682312	-2.382674534
H 	-2.503061351	-6.964372153	-4.704815953
H 	-7.145170219	-4.860244395	-1.764845521
H 	-4.941694611	-2.938294469	-3.372328302
H 	-5.608423418	-2.385571238	-0.138601286
H 	-5.707025557	-8.019254457	1.572857978
H 	-2.463748779	-8.338076091	2.321422974
H 	3.912010055	-2.727287049	0.124027546
Sn	4.821803250	8.543533390	0.600407065
Cl	5.696782123	12.828430727	1.082601518
Cl	2.030362149	8.115119269	-2.745222197
Cl	8.594207861	6.473281111	-0.205536904
Cl	3.013934143	7.114240329	4.331285115
