29

H 	-1.347843812	-1.635481970	0.002530063
C 	0.000000000	0.000000000	0.000000000
C 	-1.237406806	-0.557760087	-0.000000000
C 	-2.478000236	0.194259443	-0.000000000
O 	-3.594945092	-0.381608798	0.032819121
H 	0.086620474	1.086603688	0.004069340
C 	3.774826559	-1.998984394	0.003946882
C 	3.707893445	-0.601776795	0.032588873
C 	2.466775999	0.033838599	0.029791842
C 	1.267790290	-0.713338831	0.000064943
C 	1.354255871	-2.125081200	-0.028550836
C 	2.593964299	-2.756129535	-0.027528259
H 	4.620731815	-0.011258220	0.056428776
H 	2.413254827	1.120843741	0.051476825
H 	0.450083729	-2.726505812	-0.053654283
H 	2.645796769	-3.842053672	-0.050648755
H 	4.740841476	-2.498699837	0.005318208
C 	-3.877986950	2.342920959	-0.074330941
C 	-2.478909798	1.717272027	-0.041524255
H 	-4.458563635	2.058000551	0.808259080
H 	-4.436389667	2.013150054	-0.955854878
H 	-3.796021089	3.434899897	-0.101484585
H 	-1.917432601	2.071593981	0.835426574
H 	-1.892400672	2.029874003	-0.917134757
Sn	-4.292222943	-2.648412824	0.208380467
Cl	-3.107395018	-2.897854891	-1.847911215
Cl	-6.392018977	-1.564375056	0.196002288
Cl	-5.057820626	-4.909373166	0.387313827
Cl	-3.005885587	-2.603335503	2.216509427
