29

H 	2.489419293	0.703062327	-0.102437277
C 	4.354932452	-0.218870425	0.299298045
C 	3.013086870	-0.224532492	0.095116037
C 	2.183485432	-1.414461540	0.115990578
O 	0.948708528	-1.358170036	-0.112973172
H 	4.861477434	-1.165094715	0.489821045
C 	6.993554508	3.140092596	0.281668410
C 	7.486649196	1.847135383	0.488087289
C 	6.610371757	0.762463758	0.491634209
C 	5.224427569	0.947311818	0.287393093
C 	4.743338633	2.261434341	0.080156251
C 	5.619868296	3.341616953	0.079012910
H 	8.550527058	1.686692349	0.646126356
H 	6.992588167	-0.243959722	0.652684907
H 	3.682843467	2.435448828	-0.077761353
H 	5.236330120	4.346543547	-0.080590983
H 	7.673516033	3.988942729	0.278840002
C 	1.747456392	-3.922372845	0.436137043
C 	2.775438363	-2.785324969	0.418674586
H 	1.240971099	-4.011431482	-0.529655523
H 	0.979150519	-3.747166807	1.195515621
H 	2.247215397	-4.871569414	0.657813687
H 	3.555503931	-2.980882726	-0.331724186
H 	3.299237888	-2.719674415	1.382900059
Sn	-0.549036894	0.380727544	-0.736200692
Cl	0.119572734	1.343961465	1.342143750
Cl	-2.029312172	-1.461280807	-0.721206654
Cl	-2.105953249	2.085811160	-1.367706788
Cl	0.936410330	0.625257396	-2.586316736
