28

H 	1.922744851	0.931433378	0.094353193
C 	0.000000000	0.000000000	0.000000000
C 	1.364053455	-0.000000000	0.000000000
C 	2.199423580	-1.157738749	0.000000000
O 	3.419325857	-1.150202591	0.272846602
H 	-0.513149504	-0.955460590	-0.108218008
H 	-0.821136924	0.077352257	3.045915877
H 	-0.208580780	-1.566579580	2.407554698
H 	1.015678066	-0.206087993	2.802169768
C 	-0.009771901	-0.532985910	2.666907060
I 	1.362348698	-3.108107465	-0.478338361
C 	-0.947201335	1.495731135	-1.678590772
C 	-0.862726122	1.232458298	-0.137335186
C 	-2.288010478	0.956203324	0.392811478
C 	-0.260526785	2.470407338	0.561573962
H 	-0.137734446	2.292590555	1.635068894
H 	-1.611322796	2.349895520	-1.856274068
H 	0.040995222	1.725087453	-2.089396639
H 	-1.353441385	0.628213684	-2.211156095
H 	-2.937085044	1.814864332	0.188314729
H 	-2.726872522	0.076071264	-0.092897129
H 	-2.283803853	0.783533143	1.473376455
H 	-0.928852769	3.328468235	0.428425088
H 	0.715538283	2.743085144	0.147365878
Al	4.342825844	0.183884444	1.280620856
F 	4.118402761	1.570186435	0.348229883
F 	3.388183688	0.196002102	2.671563121
F 	5.900452289	-0.394096140	1.423262931
