28

H 	  1.922745	  0.931433	  0.094353
C 	  0.000000	  0.000000	  0.000000
C 	  1.364053	 -0.000000	  0.000000
C 	  2.199424	 -1.157739	  0.000000
O 	  3.419326	 -1.150203	  0.272847
H 	 -0.513150	 -0.955461	 -0.108218
H 	 -0.821137	  0.077352	  3.045916
H 	 -0.208581	 -1.566580	  2.407555
H 	  1.015678	 -0.206088	  2.802170
C 	 -0.009772	 -0.532986	  2.666907
I 	  1.362349	 -3.108107	 -0.478338
C 	 -0.947201	  1.495731	 -1.678591
C 	 -0.862726	  1.232458	 -0.137335
C 	 -2.288010	  0.956203	  0.392811
C 	 -0.260527	  2.470407	  0.561574
H 	 -0.137734	  2.292591	  1.635069
H 	 -1.611323	  2.349896	 -1.856274
H 	  0.040995	  1.725087	 -2.089397
H 	 -1.353441	  0.628214	 -2.211156
H 	 -2.937085	  1.814864	  0.188315
H 	 -2.726873	  0.076071	 -0.092897
H 	 -2.283804	  0.783533	  1.473376
H 	 -0.928853	  3.328468	  0.428425
H 	  0.715538	  2.743085	  0.147366
Al	  4.342826	  0.183884	  1.280621
F 	  4.118403	  1.570186	  0.348230
F 	  3.388184	  0.196002	  2.671563
F 	  5.900452	 -0.394096	  1.423263
