28

H 	1.600484250	2.335741030	-0.490331170
C 	3.315775430	1.139268200	-0.913602020
C 	2.036755350	1.337996440	-0.528165560
C 	1.140200420	0.311791040	-0.060944090
O 	0.033462110	0.535241270	0.455856570
H 	3.698472530	0.117216460	-0.930726980
H 	4.317386140	1.566613300	3.257261680
H 	3.597706710	0.185138190	2.221347700
H 	2.603754470	1.755072700	2.507721510
C 	3.520139900	1.187596390	2.627543950
I 	1.693933560	-1.784860560	-0.203334790
C 	4.697573980	1.901326040	-2.802315270
C 	4.297847600	2.195825680	-1.324506440
C 	5.552329610	2.033208930	-0.417775160
C 	3.739585850	3.626436740	-1.201531070
H 	3.454167650	3.854259970	-0.168566450
H 	5.468646540	2.614722540	-3.115241710
H 	3.835530420	2.007356080	-3.469909380
H 	5.101749360	0.888471980	-2.913109240
H 	6.311211430	2.766533080	-0.714184470
H 	5.986082440	1.031014050	-0.515064220
H 	5.293096220	2.195719760	0.633882680
H 	4.504582840	4.348169790	-1.507608970
H 	2.862526920	3.775157370	-1.841306630
Al	-0.737001690	2.173056810	1.097053870
F 	-0.487909230	3.205541150	-0.210774970
F 	0.295612540	2.493449180	2.384351430
F 	-2.313901730	1.762015880	1.447381870
