28

H 	1.601303443	2.335435170	-0.490267041
C 	3.315904054	1.138656055	-0.914263598
C 	2.037241529	1.337515006	-0.527585022
C 	1.140392984	0.311561848	-0.059900700
O 	0.032923230	0.535490929	0.455462059
H 	3.699236090	0.116806778	-0.929954377
H 	4.318279894	1.568386103	3.257108625
H 	3.599837835	0.186612608	2.220742467
H 	2.603388859	1.754540456	2.509652121
C 	3.520869736	1.188510947	2.628065570
I 	1.689450402	-1.785951234	-0.209137646
C 	4.697308280	1.900948409	-2.802077871
C 	4.298300411	2.195442726	-1.324168715
C 	5.553370544	2.033933043	-0.417609048
C 	3.739180833	3.625715920	-1.200999184
H 	3.454585273	3.853579299	-0.167796255
H 	5.469126651	2.613729232	-3.114680584
H 	3.835312798	2.008101138	-3.469603474
H 	5.100504013	0.887716929	-2.913327212
H 	6.312204124	2.767059166	-0.714710374
H 	5.987132895	1.031623789	-0.513977588
H 	5.294102747	2.197468476	0.633914754
H 	4.503387952	4.347930570	-1.508054214
H 	2.861413770	3.773543178	-1.840064667
Al	-0.737542130	2.173350885	1.096742281
F 	-0.488818549	3.205700902	-0.211336569
F 	0.295738270	2.493677097	2.383651773
F 	-2.314334318	1.761994065	1.447577158
