28

H 	1.869109255	0.320028858	-0.524153803
C 	1.268363363	0.557754529	1.514475467
C 	1.039966667	0.417365455	0.177027268
C 	-0.238029541	0.264445602	-0.440664780
O 	-0.414527555	-0.131610331	-1.613120227
H 	0.406940882	0.662782489	2.173913810
H 	1.709112605	-2.377878348	2.584827030
H 	-0.057150699	-1.902081428	2.211767862
H 	1.104736436	-2.341271730	0.810840206
C 	0.944988274	-2.120317006	1.860776118
I 	-2.050874446	0.712816530	0.675577548
C 	2.772131887	2.408580881	2.029442472
C 	2.614148739	0.854185206	2.133427279
C 	2.620771237	0.458462866	3.627471376
C 	3.782426615	0.169765581	1.391583329
H 	3.667142127	-0.919142595	1.400335886
H 	3.709768982	2.702763213	2.515774559
H 	2.801493716	2.728070422	0.983037898
H 	1.947606445	2.929070819	2.529933579
H 	3.558309109	0.777982529	4.095814586
H 	1.792802522	0.935051799	4.166429615
H 	2.530929509	-0.624963427	3.752248326
H 	4.727920346	0.420382933	1.885434819
H 	3.856153392	0.496387075	0.349226720
Al	0.817501339	-1.150244837	-2.658461290
F 	2.148337507	-0.121116654	-2.764866798
F 	1.093019032	-2.432508049	-1.597282736
F 	-0.000853776	-1.485621372	-4.072118230
