28

H 	-1.684907490	-1.273318406	-0.000843288
C 	0.000000000	0.000000000	0.000000000
C 	-1.323659908	-0.251953609	-0.000000000
C 	-2.352432892	0.782931130	-0.000000000
O 	-3.572428878	0.498650721	-0.003005755
H 	0.345007548	1.035974618	-0.001417671
C 	0.588648950	-2.472701287	0.010455366
C 	1.108577348	-1.021673856	0.000041030
C 	1.983274685	-0.764934803	1.260201769
C 	1.969268082	-0.778409730	-1.272671562
H 	2.357953345	0.246833838	-1.301009589
H 	1.434793156	-3.168651796	0.011270052
H 	-0.022100595	-2.686210112	-0.873971496
H 	-0.015583603	-2.675671246	0.901804690
H 	2.837225450	-1.452483597	1.262802128
H 	1.405698617	-0.928370337	2.176928416
H 	2.371637689	0.260693252	1.273705204
H 	2.822758984	-1.466527075	-1.277573383
H 	1.381202584	-0.950886321	-2.180949704
C 	-1.986731611	2.253687128	0.002241210
H 	-2.901231546	2.849391419	0.001002257
H 	-1.385978679	2.500757544	-0.881272219
H 	-1.390205606	2.498499811	0.889277224
Sn	-4.810256940	-1.579555380	-0.003867624
Cl	-6.587795579	-0.026894660	0.007949199
Cl	-3.635353233	-1.939583678	2.037849744
Cl	-6.072497119	-3.609528700	-0.006856377
Cl	-3.637901160	-1.935043223	-2.048225248
