28

H 	2.516950726	0.711542002	-0.234681794
C 	4.298694997	-0.281751848	0.312134816
C 	2.980418257	-0.228820115	0.038454639
C 	2.089579705	-1.383708465	0.083174333
O 	0.868308845	-1.283771644	-0.177065382
H 	4.747476859	-1.238246599	0.587794498
C 	4.606058758	2.204678820	-0.116885708
C 	5.268806124	0.871861377	0.283461885
C 	6.392422048	0.514980750	-0.731002967
C 	5.889543848	0.996781132	1.704321854
H 	6.374571995	0.062051194	2.010967072
H 	5.355780681	3.003552300	-0.121983983
H 	3.816910062	2.487987750	0.588658256
H 	4.166371221	2.148661709	-1.119050541
H 	7.151014237	1.306489298	-0.734761112
H 	5.987914568	0.419691874	-1.744899787
H 	6.885235082	-0.427945827	-0.464646335
H 	6.646181078	1.790169818	1.707596533
H 	5.122383959	1.247935883	2.445216841
C 	2.606498706	-2.760412523	0.449707194
H 	1.779136849	-3.471696893	0.422833948
H 	3.049094446	-2.749213998	1.452965615
H 	3.385680417	-3.076690440	-0.254177425
Sn	-0.564899631	0.556556204	-0.817585898
Cl	-2.127423155	-1.212280158	-0.800950832
Cl	0.934966578	0.697338373	-2.663990687
Cl	-2.017083686	2.346866096	-1.450043675
Cl	0.146122184	1.451955920	1.273560941
