22

H 	-0.201209510	0.242970670	-0.046094010
C 	-0.088321950	-1.889382210	0.113425010
C 	0.403721480	-0.628191510	0.185177920
C 	1.764478980	-0.312270230	0.580740230
O 	2.281018680	0.780465590	0.675551740
H 	0.579585100	-2.709450780	0.374828930
C 	-4.019821660	-3.143044590	-1.006201300
C 	-3.696340950	-1.777582420	-1.045560390
C 	-2.422859020	-1.346194210	-0.685255700
C 	-1.438849340	-2.276493590	-0.275709520
C 	-1.780641750	-3.647321450	-0.244128680
C 	-3.058529910	-4.076731760	-0.603879300
H 	-4.443357500	-1.052319580	-1.360910020
H 	-2.188634450	-0.285432150	-0.724224770
H 	-1.031096570	-4.372279770	0.068095370
H 	-3.303996190	-5.135947140	-0.572734630
H 	-5.016886180	-3.473581480	-1.289577620
F 	2.539347420	-1.427941760	0.879569100
B 	1.222912370	2.767390580	0.164489600
F 	0.147399530	2.541012720	0.937355470
F 	1.130988500	2.501224740	-1.146045970
F 	2.215867830	3.526502140	0.623410100
