25

H 	2.004084592	0.954501969	0.120664378
C 	0.000000000	0.000000000	0.000000000
C 	1.488537937	-0.000000000	-0.000000000
C 	2.368363607	-1.111299482	-0.000000000
O 	3.600881968	-1.083092395	0.090483124
H 	-0.372909264	-0.947231234	-0.401148697
H 	-1.681173382	1.171703182	-0.725769444
H 	-0.321182058	1.075433469	-1.870324460
C 	-0.589292080	1.171428257	-0.812091116
H 	-0.216533384	2.136365076	-0.452645552
Br	1.539890601	-2.919075976	-0.203930811
C 	-1.046089450	0.116251693	4.220835852
C 	-1.331960421	-1.020562466	3.453312626
C 	-0.981105063	-1.061217906	2.102313151
C 	-0.367859758	0.046876822	1.495656594
C 	-0.064659297	1.178124541	2.277375335
C 	-0.409170525	1.213476116	3.629756539
H 	-1.826698239	-1.875588373	3.908633628
H 	-1.192447256	-1.948247476	1.510324558
H 	0.442208930	2.030447676	1.832454256
H 	-0.173599626	2.093849176	4.223181340
H 	-1.311608847	0.142611701	5.275250010
Zn	5.043899765	0.420960134	0.774512629
Cl	6.878570631	-0.655632704	0.827616563
Cl	3.934922910	2.242671008	1.087868743
