25

H 	0.695706975	-1.616209296	0.347602738
C 	-0.676785574	0.005593291	1.001827106
C 	0.512789307	-0.541470761	0.293746803
C 	1.401499843	0.130815179	-0.582212640
O 	2.329514041	-0.370004859	-1.227234565
H 	-0.584959842	1.091379459	1.101150008
H 	-1.796884407	-0.245214034	2.848025325
H 	-0.033027964	-0.373207819	3.051196400
C 	-0.874407192	-0.624715388	2.395619761
H 	-0.945228339	-1.715903726	2.336074813
Br	1.159088653	2.105802694	-0.773712720
C 	-3.969546679	-0.767239996	-1.733812837
C 	-3.564936448	0.547823343	-1.469125240
C 	-2.497612392	0.792388641	-0.602546276
C 	-1.842271283	-0.274389738	0.033447298
C 	-2.240300237	-1.594376787	-0.252810022
C 	-3.302466462	-1.836866571	-1.125664108
H 	-4.080445171	1.382077854	-1.939680439
H 	-2.176521115	1.812476370	-0.406947469
H 	-1.720651567	-2.433262841	0.202777885
H 	-3.603912891	-2.860253413	-1.336644653
H 	-4.795020846	-0.956359424	-2.416316213
Zn	2.836528983	-2.418524566	-1.826295154
Cl	4.451848853	-2.141505504	-3.183458190
Cl	1.465098705	-3.721251680	-0.792499580
