22

C 	1.372291743	-0.000000000	-0.000000000
C 	0.000000000	0.000000000	0.000000000
C 	-0.561686228	0.402984950	2.342199113
H 	1.934928148	-0.931979812	0.013723894
C 	2.233466695	1.157496562	-0.000000000
H 	-0.064664708	-0.478441589	2.729669975
H 	-0.496778803	0.954750951	-0.151579171
H 	-1.638867572	0.376092476	2.224583319
H 	-0.063435741	1.362955877	2.406902179
O 	3.431723401	1.190788418	-0.011480282
Br	1.229878253	2.989321155	0.032867592
C 	-2.525099850	-3.430113168	-0.489377403
C 	-3.013653951	-2.140220111	-0.725782359
C 	-2.179914697	-1.035447208	-0.549937248
C 	-0.838631496	-1.196179621	-0.145351058
C 	-0.362537931	-2.501790660	0.094982948
C 	-1.197373032	-3.604632180	-0.075985439
H 	-4.043166113	-1.996067208	-1.045751980
H 	-2.561181781	-0.032233167	-0.731236265
H 	0.660749908	-2.654489745	0.428401992
H 	-0.815548881	-4.604804125	0.116587571
H 	-3.173168272	-4.293455960	-0.621809896
