22

C 	0.730762483	-0.296626844	1.068160930
C 	1.215413446	-0.205371741	-0.213969989
C 	-0.798015967	-0.304320696	-1.582709141
H 	0.734128047	-1.244575766	1.603738624
C 	0.153563463	0.767333721	1.853873470
H 	-1.261379480	-1.130828195	-1.056598329
H 	1.303424804	0.789338291	-0.643902270
H 	-0.310238670	-0.504892169	-2.529751235
H 	-1.117787802	0.705965122	-1.353949391
O 	-0.261585339	0.721320325	2.978781068
Br	0.030294053	2.601576055	0.865882744
C 	3.313822903	-3.280817149	-2.348161813
C 	3.354848130	-1.950877912	-2.783362187
C 	2.660951804	-0.964010323	-2.080499257
C 	1.919193046	-1.283459155	-0.923327225
C 	1.886052435	-2.628400563	-0.498779925
C 	2.576852767	-3.614020998	-1.202979650
H 	3.925858754	-1.684011116	-3.670431217
H 	2.690286422	0.069067073	-2.423435719
H 	1.310599475	-2.907983964	0.380258803
H 	2.540147235	-4.646458836	-0.860978047
H 	3.851726181	-4.052974390	-2.894003166
