22

C 	0.753395432	-0.273241817	1.061014922
C 	1.211063867	-0.202658574	-0.230783142
C 	-0.833745741	-0.336125902	-1.559212709
H 	0.776623053	-1.209747469	1.615768993
C 	0.188750738	0.805612954	1.834752179
H 	-1.141523123	-1.308507573	-1.193393392
H 	1.286106563	0.785125789	-0.677958106
H 	-0.360814331	-0.279027281	-2.532840953
H 	-1.289002616	0.554444292	-1.142547228
O 	-0.208388116	0.778997491	2.965518126
Br	0.054421590	2.626933491	0.820553699
C 	3.321555031	-3.285485223	-2.333948075
C 	3.390867012	-1.952885289	-2.755575606
C 	2.687679309	-0.965324891	-2.065055997
C 	1.909988643	-1.285866385	-0.933236269
C 	1.845017346	-2.634005288	-0.524156896
C 	2.543661146	-3.620787459	-1.217407965
H 	3.991403062	-1.684459230	-3.621808724
H 	2.739679740	0.070564985	-2.395056685
H 	1.236342787	-2.913581437	0.331971441
H 	2.480466496	-4.656417835	-0.890767296
H 	3.865370273	-4.058586587	-2.871973247
