32

H 	1.720132320	2.292239020	-0.506771130
C 	3.474626090	1.093979020	-0.468626170
C 	2.128214300	1.297639830	-0.365733970
C 	1.175738540	0.259325130	-0.053809350
O 	-0.049107000	0.502795610	0.145518890
H 	3.863707880	0.079995810	-0.374110590
H 	2.953732790	0.749349130	2.409587880
H 	3.983397700	2.266591240	2.121773170
H 	4.799280560	0.583146920	2.137917270
C 	3.898972030	1.186931060	2.112584410
C 	1.607510010	-1.189425490	0.055693290
H 	2.329856830	-1.304043500	0.875260790
H 	2.098048340	-1.524707530	-0.865777900
H 	0.733876550	-1.812476850	0.257126090
C 	4.548696660	1.747872160	-2.564003200
C 	4.460400590	2.095895350	-1.041302740
C 	5.868212890	1.917474580	-0.422756430
C 	3.992551700	3.558325450	-0.880201910
H 	3.814074440	3.805311240	0.172429320
H 	5.268398550	2.420330930	-3.046814960
H 	3.574439810	1.868342610	-3.049245260
H 	4.889956970	0.716609810	-2.717791360
H 	6.598541770	2.511684100	-0.984247880
H 	6.188280160	0.868148620	-0.458107930
H 	5.893955250	2.249262710	0.619480320
H 	4.764420300	4.235774730	-1.263030500
H 	3.072344950	3.755968320	-1.439959860
Sn	-1.234212840	2.484538640	0.561258210
Cl	0.358454410	2.681787870	2.341369270
Cl	-2.996589910	0.925713630	0.797383680
Cl	-2.447589510	4.486913460	1.070992530
Cl	-0.586351220	3.109189410	-1.655170270
