32

H 	1.732373952	2.277436467	-0.441202215
C 	3.481788497	1.081687391	-0.442303146
C 	2.135600055	1.278823914	-0.326209797
C 	1.181783249	0.242056792	-0.021916446
O 	-0.040557429	0.490359280	0.181645393
H 	3.875371137	0.067781493	-0.375443386
H 	3.066474040	0.559656602	2.407015097
H 	3.830918312	2.228232167	2.134881687
H 	4.906839799	0.697582514	2.117753762
C 	3.922259711	1.150135536	2.103898553
C 	1.601480539	-1.210683480	0.061139618
H 	2.415913176	-1.337502080	0.784858411
H 	1.968630424	-1.557817596	-0.912527415
H 	0.745770528	-1.816875678	0.363893218
C 	4.487715486	1.801329272	-2.547916087
C 	4.450003899	2.100616126	-1.013724950
C 	5.873083042	1.900572439	-0.442033703
C 	3.992141211	3.557405435	-0.792740867
H 	3.870634219	3.779435318	0.273087272
H 	5.188259503	2.490936205	-3.033774329
H 	3.497144483	1.933907293	-2.994792508
H 	4.824966482	0.776885141	-2.746238530
H 	6.593878637	2.492858175	-1.017100437
H 	6.179398636	0.848593153	-0.499670423
H 	5.931477517	2.220270204	0.602206322
H 	4.742378116	4.244407769	-1.199799599
H 	3.042930220	3.769064134	-1.295701241
Sn	-1.206305773	2.509867429	0.474895247
Cl	0.423405918	2.873468317	2.190297879
Cl	-2.961332467	0.989010998	0.908023384
Cl	-2.410603143	4.552229802	0.818158566
Cl	-0.597850066	2.928752485	-1.797745618
