27

H 	2.017966138	0.955264560	-0.030002836
C 	0.000000000	0.000000000	0.000000000
C 	1.496285185	-0.000000000	0.000000000
C 	2.329032785	-1.167204580	0.000000000
O 	3.586429200	-1.057504318	0.060318091
H 	-0.342283337	-0.493653122	-0.932163245
H 	-1.678076994	1.389795103	0.042245824
H 	-0.245376484	2.002511525	-0.808461438
C 	-0.584148650	1.418114910	0.055743725
H 	-0.256618960	1.921346595	0.971692136
C 	2.736783545	-3.671793640	-0.378481116
C 	1.717618080	-2.560849200	-0.106091184
H 	3.488438306	-3.718220844	0.415347181
H 	3.266324307	-3.502970718	-1.322493738
H 	2.229142833	-4.641108124	-0.435005217
H 	1.178233343	-2.738105247	0.834065781
H 	0.940421523	-2.539034469	-0.884342328
O 	-0.453852313	-0.796960451	1.122946729
C 	-1.701909502	-1.484005986	0.891265778
C 	-2.063390370	-2.246586695	2.157847448
H 	-1.586649150	-2.172913939	0.037397015
H 	-2.490310368	-0.758474246	0.634954305
H 	-1.283475973	-2.974769021	2.407726123
H 	-3.007953755	-2.784792388	2.014017050
H 	-2.179121625	-1.558954530	3.002651976
I 	4.871588526	1.155500221	0.769847668
I 	6.285778712	3.424570170	1.592356248
