33

H 	-0.476575890	-2.050648732	0.213251312
C 	0.000000000	0.000000000	0.000000000
C 	-0.841089943	-1.045685462	-0.000000000
C 	-2.312555738	-0.942350729	-0.000000000
O 	-2.977123281	-1.628795487	0.855173349
H 	-0.387042414	1.014398865	-0.109233528
C 	1.473075731	-0.105624047	0.271690940
C 	1.849861502	0.638951694	1.551117223
C 	1.204167367	0.331700123	2.760474161
C 	1.555770463	1.005740305	3.933946808
C 	2.547959110	1.993017126	3.913732978
C 	3.188981144	2.306990981	2.710830970
C 	2.837935149	1.633788238	1.535272736
H 	1.760439285	-1.162648087	0.344584688
H 	2.031850309	0.331035472	-0.568648335
H 	0.422414586	-0.424594084	2.794566568
H 	1.049181792	0.756737122	4.863729738
H 	2.819136392	2.514928255	4.829073192
H 	3.961210654	3.073255353	2.685788736
H 	3.340810207	1.878941536	0.600655339
N 	-2.991107241	-0.148075596	-0.846593282
C 	-4.448533449	0.020750485	-0.701304102
C 	-2.396080639	0.519730472	-2.012986417
H 	-4.765598868	-0.355059453	0.269944176
H 	-4.969822807	-0.531423510	-1.493195660
H 	-4.689029769	1.085693801	-0.791603760
H 	-2.317407290	1.600619971	-1.842775676
H 	-3.046268711	0.349479059	-2.878635569
H 	-1.407830730	0.111543706	-2.219025700
Al	-2.371107108	-2.649609101	2.293697258
F 	-1.543956849	-1.539607525	3.262371047
F 	-1.326927414	-3.772971540	1.583390343
F 	-3.779404217	-3.274475328	2.952516706
