33

H 	2.713674621	0.397915759	0.713212107
C 	4.393279185	-0.868832503	0.941331095
C 	3.107776464	-0.616492403	0.650302563
C 	2.197021704	-1.559519483	-0.025800496
O 	1.512221210	-1.142484266	-1.026454177
H 	4.807352760	-1.864651172	0.775117062
C 	5.377906770	0.177745997	1.377343110
C 	6.495250478	0.342334011	0.348875324
C 	6.182565446	0.630500300	-0.990175425
C 	7.205252306	0.791370881	-1.929976043
C 	8.545648092	0.662594032	-1.547460567
C 	8.861635825	0.369251777	-0.216835096
C 	7.839329710	0.207335308	0.724995913
H 	4.857828698	1.131727330	1.534281147
H 	5.823196641	-0.117324677	2.338447106
H 	5.146378679	0.723250312	-1.309542064
H 	6.949218537	1.016073229	-2.962974846
H 	9.338642045	0.789020793	-2.281594694
H 	9.900846120	0.267098658	0.089323881
H 	8.088895210	-0.018598871	1.760932181
N 	2.062209286	-2.843815982	0.348943991
C 	1.245949302	-3.771475914	-0.455337695
C 	2.602476019	-3.404218148	1.595762269
H 	1.039988071	-3.328601737	-1.428235039
H 	0.298832724	-3.978059443	0.058495340
H 	1.798032238	-4.709919761	-0.576268878
H 	3.449989274	-4.068786567	1.387067752
H 	1.813555720	-3.987919175	2.083590515
H 	2.923167060	-2.604751898	2.261883485
Al	1.603817163	0.481215102	-1.939623176
F 	3.189748016	0.534531100	-2.519787547
F 	1.328609316	1.638632106	-0.739024644
F 	0.411405829	0.341949074	-3.108623516
