30

H 	1.913452663	0.940346464	-0.036539153
C 	0.000000000	0.000000000	0.000000000
C 	1.377256585	0.000000000	0.000000000
C 	2.183476999	-1.183875502	-0.000000000
O 	3.443026731	-1.146741211	-0.149006910
H 	-0.521566879	-0.946128965	0.128660150
H 	0.129597395	0.579600698	-2.692119948
H 	-1.490160979	-0.289464682	-2.360497563
H 	0.085272769	-1.273149878	-2.559031497
C 	-0.408306756	-0.318761941	-2.416453451
C 	1.568683596	-2.558416171	0.166745328
H 	0.968088015	-2.807521875	-0.718515020
H 	0.908457907	-2.599244968	1.040134864
H 	2.365444556	-3.297429682	0.270091197
C 	-2.216215364	1.031652591	0.392240926
C 	-3.059186992	2.131241075	0.538253085
C 	-2.509890342	3.404786694	0.405316469
C 	-1.156408647	3.610660273	0.135231912
C 	-0.327291344	2.501486925	-0.003333117
C 	-0.839147461	1.191324596	0.125992472
H 	-2.627089010	0.028629184	0.489157233
H 	-4.118718075	2.016837704	0.749078625
F 	-3.325368850	4.489977881	0.540433391
H 	-0.773076603	4.622340941	0.036708376
H 	0.725151650	2.659106096	-0.219927414
Sn	4.864857802	0.561926648	-0.843237405
Cl	4.256369114	1.627597366	1.208384618
Cl	3.331107439	0.735880512	-2.680728133
Cl	6.356748635	2.278310825	-1.603357351
Cl	6.409420950	-1.226855669	-0.810940496
