30

H 	1.614798162	2.020323222	-0.824679932
C 	3.496124144	1.091796340	-0.443447651
C 	2.119619178	1.134117302	-0.460142380
C 	1.274788071	0.083069516	0.022673850
O 	0.017414382	0.217543330	0.127439027
H 	3.985970135	0.162439445	-0.160442122
H 	3.390481423	2.743085631	1.761620503
H 	4.980102284	1.765528954	1.841330575
H 	3.373432441	1.002677238	2.412043339
C 	3.897971136	1.795441291	1.891284378
C 	1.843610935	-1.254315241	0.450434934
H 	2.437228959	-1.130646485	1.366283321
H 	2.500583496	-1.675257615	-0.318700167
H 	1.022725155	-1.944413013	0.654300005
C 	5.744465234	1.797915764	-1.202478779
C 	6.622988784	2.710461983	-1.782540260
C 	6.116235714	3.939983992	-2.198225661
C 	4.770761597	4.281081550	-2.054719029
C 	3.905755467	3.356299666	-1.477272798
C 	4.373887010	2.096156596	-1.043522383
H 	6.121857905	0.833472206	-0.868279329
H 	7.677794795	2.486185514	-1.913788120
F 	6.966825533	4.844826986	-2.762723499
H 	4.421183907	5.253214916	-2.390725389
H 	2.859469382	3.622031039	-1.358675104
Sn	-1.346050635	2.102926180	0.030485010
Cl	-0.706374136	2.198636889	-2.270975163
Cl	0.195853354	2.978737140	1.647429520
Cl	-2.779166016	4.024900682	-0.010619125
Cl	-2.948831836	0.511426582	0.726676101
