31

H 	1.906356169	0.940416035	-0.105097952
C 	0.000000000	0.000000000	0.000000000
C 	1.373928345	-0.000000000	-0.000000000
C 	2.198508626	-1.180043529	-0.000000000
O 	3.441105786	-1.102463245	-0.221367937
H 	-0.528070418	-0.933655303	0.180226737
H 	0.308682387	0.321982074	-2.723158198
H 	-1.468230451	-0.176827554	-2.402716223
H 	-0.124995447	-1.470106566	-2.465524022
C 	-0.413817727	-0.425794502	-2.418253406
C 	2.632055498	-3.686835223	0.333842698
C 	1.599535407	-2.556890158	0.248425545
H 	3.341517325	-3.509478075	1.148517078
H 	3.207986044	-3.766571572	-0.593074711
H 	2.126821197	-4.641946688	0.513867842
H 	0.994646404	-2.509506825	1.164734588
H 	0.884122137	-2.752709083	-0.565802649
C 	-2.179238602	1.090064722	0.453146575
C 	-2.999153497	2.216560688	0.534710363
C 	-2.502288102	3.478961014	0.194642302
C 	-1.173686102	3.573323613	-0.221467102
C 	-0.330139378	2.475714041	-0.303651057
C 	-0.833699197	1.205075533	0.046318637
H 	-2.574579765	0.110821129	0.713923053
H 	-4.032069791	2.115435076	0.858284884
H 	-3.119922177	4.371533446	0.238623996
F 	-0.685957698	4.801682587	-0.569938035
H 	0.685643689	2.610862966	-0.663472563
Zn	4.496329252	0.455046471	-1.099317419
Cl	6.461179601	0.551776139	-0.246018378
Cl	3.170348498	1.355849332	-2.576027741
