31

H 	1.585053060	2.149785710	-0.946262910
C 	3.428689860	1.112505120	-0.723468550
C 	2.056471080	1.190094670	-0.755056450
C 	1.155948280	0.122805890	-0.400426400
O 	-0.075136070	0.351701320	-0.214703990
H 	3.901105160	0.138813200	-0.608874210
H 	3.125432870	2.220823710	1.782130590
H 	4.872948410	1.553239290	1.663502000
H 	3.455894950	0.411080720	2.073193540
C 	3.805212780	1.378108850	1.726665280
C 	0.550902810	-2.334512300	0.036374090
C 	1.658249130	-1.302856970	-0.215653690
H 	-0.152713670	-2.368427610	-0.801958560
H 	-0.019996630	-2.088565430	0.937279160
H 	0.990153850	-3.330530840	0.162787300
H 	2.256611580	-1.576564570	-1.096470880
H 	2.366657090	-1.290138040	0.627957510
C 	5.681960080	1.907937390	-1.386831240
C 	6.573148360	2.918701410	-1.751187000
C 	6.146052790	4.249776240	-1.819239870
C 	4.813340090	4.531893490	-1.511911470
C 	3.901987640	3.549851910	-1.149304370
C 	4.334775330	2.206796460	-1.090735830
H 	6.024498590	0.876442810	-1.329820460
H 	7.607134380	2.673826600	-1.982880360
H 	6.820682020	5.055112440	-2.096834840
F 	4.391917460	5.834373570	-1.563826810
H 	2.886787160	3.835784440	-0.889099580
Zn	-0.991294000	2.183914500	0.135685420
Cl	-2.929778820	2.194524800	-0.784469720
Cl	0.404496400	3.380249540	1.310434410
