31

H 	1.588256933	2.168941669	-0.913124858
C 	3.429002116	1.123387461	-0.693818424
C 	2.058057700	1.208278120	-0.725188511
C 	1.157656001	0.133903854	-0.397420169
O 	-0.077942620	0.349872817	-0.237034323
H 	3.895172013	0.147309080	-0.579761902
H 	3.132293062	2.251693462	1.806868912
H 	4.873701621	1.571829741	1.687726611
H 	3.448096313	0.440018775	2.096932108
C 	3.805147833	1.404133626	1.751624603
C 	0.561387831	-2.328197919	0.009934178
C 	1.665673003	-1.289284875	-0.216745382
H 	-0.131914298	-2.355214926	-0.836876443
H 	-0.021897170	-2.095602368	0.905985337
H 	1.003359289	-3.323267139	0.129963921
H 	2.275687224	-1.551397425	-1.092495237
H 	2.363701024	-1.280372692	0.635197225
C 	5.676845181	1.894768403	-1.397264798
C 	6.569365513	2.894339582	-1.787356019
C 	6.155375074	4.229076069	-1.844509465
C 	4.834356060	4.523729629	-1.504917569
C 	3.920152851	3.553348144	-1.123257618
C 	4.340317248	2.207425067	-1.072993855
H 	6.007867784	0.859688495	-1.349823867
H 	7.594560663	2.638764842	-2.043284500
H 	6.830532325	5.029140380	-2.134598367
F 	4.427213376	5.827914087	-1.543834011
H 	2.914160024	3.850987421	-0.842292708
Zn	-1.031619266	2.158981041	0.120396317
Cl	-2.982746308	2.121263905	-0.768306930
Cl	0.345373621	3.371089994	1.297267852
