28

H 	-0.240216315	-2.120532753	-0.031692568
C 	0.000000000	0.000000000	0.000000000
C 	-0.730823543	-1.150649796	-0.000000000
C 	-2.170280915	-1.259386300	-0.000000000
O 	-2.830996565	-2.271666698	-0.046641696
H 	-0.533535418	0.943021869	0.101826290
H 	0.318576420	-0.295866506	-2.849681978
H 	0.102316851	1.529748963	-2.521435844
H 	-1.370160326	0.391384285	-2.449564341
C 	-0.296546737	0.522600672	-2.495530067
Br	-3.203441587	0.499621422	0.091184836
C 	1.646244007	0.149807322	1.801948271
C 	1.496962131	0.058325219	0.248810026
C 	2.116160163	1.331741889	-0.372944247
C 	2.247071017	-1.189424547	-0.262813318
H 	2.103234555	-1.322858427	-1.340848326
H 	2.708816824	0.233867725	2.059923172
H 	1.235354877	-0.742150004	2.286168017
H 	1.125975476	1.028803088	2.199658692
H 	3.144978680	1.457258884	-0.016326729
H 	1.548204270	2.226835959	-0.091521566
H 	2.143314363	1.269916205	-1.464776385
H 	3.320894156	-1.077252775	-0.074682098
H 	1.918263026	-2.103175583	0.243510402
B 	-1.978456310	-4.424567236	-0.536555378
F 	-1.194919348	-4.476934779	0.547318658
F 	-1.440097353	-4.032374564	-1.696880537
F 	-3.175081248	-4.999809077	-0.519068555
