28

H 	1.601901898	2.313159663	-0.368121947
C 	3.379711942	1.132805640	-0.407151145
C 	2.037476468	1.322331252	-0.263686934
C 	1.054132234	0.318607043	0.067119633
O 	-0.131691280	0.481050356	0.242809656
H 	3.758592379	0.113642945	-0.361589132
H 	3.724683591	2.106615937	2.284020229
H 	4.951371759	0.717202533	2.055651896
H 	3.145632186	0.332173932	2.301184501
C 	3.923646716	1.057644276	2.100279308
Br	1.750070645	-1.591754934	0.256937074
C 	4.287702515	1.918285295	-2.537445483
C 	4.327589228	2.163771160	-0.994384174
C 	5.776032246	1.932129466	-0.504558145
C 	3.903285608	3.617601730	-0.698336239
H 	3.852015130	3.802643729	0.380451879
H 	4.982687306	2.607226653	-3.032454715
H 	3.281028740	2.088193856	-2.933204882
H 	4.586819489	0.893029588	-2.784156350
H 	6.468892613	2.550497443	-1.086764009
H 	6.072975788	0.883389902	-0.626770566
H 	5.888545409	2.201595250	0.549664868
H 	4.636089838	4.310407730	-1.127393116
H 	2.928244443	3.858364435	-1.135082624
B 	-1.191367405	2.584750222	0.473795392
F 	-0.884027592	2.994066138	-0.762917257
F 	-0.400986913	2.958720588	1.486437864
F 	-2.384225481	2.056427792	0.720949649
