26

H 	1.876669460	0.952518875	0.000191110
C 	0.000000000	0.000000000	0.000000000
C 	1.357445558	0.000000000	-0.000000000
C 	2.148156183	-1.204397963	-0.000000000
O 	3.406931813	-1.177985666	-0.001771986
H 	-0.589701943	-0.918689605	-0.002502607
O 	-0.691531869	1.145879784	0.004282730
C 	-2.157997329	1.031210584	-0.017781118
C 	-2.732858689	2.434413940	0.041689416
H 	-2.466033543	0.427535153	0.845893490
H 	-2.443908486	0.512496495	-0.941990503
H 	-2.426073277	2.941571840	0.962523293
H 	-3.827642598	2.380133503	0.021761520
H 	-2.398446887	3.027902257	-0.815765317
C 	2.491187120	-3.748852238	-0.039703983
C 	1.492890409	-2.585520336	0.005196497
H 	3.166438187	-3.722310227	0.820651969
H 	3.107401795	-3.704797336	-0.942819958
H 	1.950416853	-4.701606228	-0.031324944
H 	0.866054430	-2.654127605	0.906216970
H 	0.804359812	-2.638390110	-0.849968448
Sn	5.036515202	0.514881735	0.019127878
Cl	4.012150828	1.162656275	-2.035031771
Cl	6.440029695	-1.388565485	0.004683591
Cl	6.734126585	2.205404836	0.046487799
Cl	3.989733529	1.124521325	2.074214866
