26

H 	2.533514696	0.715007120	0.348281518
C 	4.325322922	-0.353044524	0.627332539
C 	2.991386796	-0.267557954	0.390763519
C 	2.148208077	-1.418796494	0.192024451
O 	0.912370361	-1.313256371	-0.024269930
H 	4.853901761	-1.306406032	0.686081858
O 	5.068583851	0.746257086	0.801614802
C 	6.499447803	0.538670135	1.073078971
C 	7.151961469	1.904139708	1.185776557
H 	6.921835535	-0.048045008	0.246884013
H 	6.588350542	-0.033704395	2.005525314
H 	7.041313786	2.466169386	0.252427114
H 	8.221276378	1.780265657	1.393420820
H 	6.704196086	2.482606920	2.000742876
C 	1.664314573	-3.936135970	0.042547927
C 	2.717174553	-2.837119171	0.231231343
H 	1.154477460	-3.832603384	-0.919859454
H 	0.901363402	-3.889654033	0.825506907
H 	2.144863664	-4.919948347	0.080345175
H 	3.488843471	-2.908837921	-0.549058152
H 	3.239533600	-2.967533885	1.189516117
Sn	-0.592295866	0.478347061	-0.243166140
Cl	0.086378016	0.977335331	1.988182904
Cl	-2.078623176	-1.331976377	-0.569866411
Cl	-2.162797433	2.272156221	-0.480389348
Cl	0.833545193	1.102865892	-2.050857579
