27

H 	1.446207750	1.942451470	-0.597801680
C 	3.399099410	1.094778640	-0.342673330
C 	2.023546900	1.072501800	-0.302318480
C 	1.244430010	-0.065480440	0.152622490
O 	-0.007960180	-0.032164450	0.162985170
H 	3.931220040	0.165566770	-0.146978490
H 	3.870404940	2.761836690	1.799546380
H 	5.006020710	1.290401920	1.917592610
H 	3.235036920	1.156952310	2.490204480
C 	4.000156690	1.695805000	1.943435010
C 	1.936358850	-1.337076080	0.629348180
H 	2.629288770	-1.122080220	1.452918690
H 	2.520426550	-1.785610230	-0.184949100
H 	1.180858540	-2.050376470	0.965530610
C 	5.553080610	1.788992000	-1.359938860
C 	6.399815850	2.710882760	-1.972782320
C 	5.955891330	4.019995310	-2.199458000
C 	4.667108150	4.397325910	-1.808030270
C 	3.840405850	3.457883640	-1.202578720
C 	4.238248170	2.126995310	-0.964055920
H 	5.899166580	0.772393850	-1.180411100
H 	7.402606810	2.413229740	-2.269756170
H 	6.609895710	4.748601940	-2.673188200
H 	4.295752030	5.407475810	-1.960161260
F 	2.597024200	3.872789530	-0.800460160
I 	-1.488640420	2.089060390	-0.652321690
I 	-3.052717760	4.253420940	-1.475676740
