26

H 	2.346084950	0.805027994	-0.265796190
C 	4.176167798	-0.169163603	0.257663472
C 	2.851473558	-0.120101500	-0.016463577
C 	1.986779485	-1.288766728	0.005445559
O 	0.750209573	-1.271257095	-0.223265403
H 	4.616430054	-1.133896635	0.506381072
C 	6.446762147	0.730596511	0.607823696
C 	7.368047532	1.778888139	0.631981536
C 	6.966437508	3.078666734	0.310752821
C 	5.629407069	3.291730756	-0.032130139
C 	4.690756280	2.274061115	-0.064836692
C 	5.097181246	0.960281090	0.261918397
H 	6.765310981	-0.278539773	0.858049420
H 	8.403750480	1.587663763	0.901095437
H 	7.660393637	3.914459954	0.320376959
F 	5.233586546	4.561119940	-0.347822337
H 	3.667026177	2.507594093	-0.340571866
O 	2.577527145	-2.455841150	0.294442031
C 	1.713651091	-3.639742227	0.324084573
H 	1.256298535	-3.789823277	-0.657197170
H 	0.934214115	-3.512079417	1.079484075
H 	2.382618823	-4.461615057	0.579234090
B 	-0.184214450	0.124297249	-0.597153890
F 	-0.002673734	0.945606033	0.497115035
F 	-1.430228277	-0.411922779	-0.731036185
F 	0.387621971	0.602546491	-1.758907363
