13
GO, R2=Br, R1=Cl
C	 0.34014525	 0.47537547	 0.08649891
C	 1.44917050	-0.52141954	 0.43843194
H	 1.15742840	-1.06733018	 1.34098755
C	-0.98874204	-0.19287684	-0.15337505
H	 0.59146769	 1.01229411	-0.83472899
H	 0.21538809	 1.22990327	 0.86933387
H	 3.07644290	 0.76409943	-0.19457682
C	 2.78733589	 0.17541313	 0.67764616
H	 3.56181055	-0.56784750	 0.86753127
H	 2.72212717	 0.83767219	 1.54038916
O	-1.15591356	-1.37849772	-0.20502989
Br	 1.62619739	-1.78021909	-0.98711538
Cl	-2.30996946	 0.94619010	-0.38679446
