25

H 	1.010658673	-1.244168409	1.324042257
C 	-0.782039076	-0.012541957	0.940097050
C 	0.490741444	-0.780553048	0.478419716
C 	1.457358879	0.127605308	-0.251647227
O 	2.621217655	0.314973599	0.053715253
H 	-1.144239512	0.565536451	0.073789336
H 	0.210814692	-1.570128503	-0.234771410
H 	-0.052051389	0.482483121	2.949665384
C 	-0.389280440	0.996175774	2.040963604
H 	0.438128023	1.631868260	1.704068947
H 	-1.221420828	1.653959777	2.307866539
H 	1.015041567	0.652465924	-1.138095256
C 	-2.432400182	-1.775269794	0.101164214
C 	-1.970079909	-0.966470791	1.337753609
C 	-3.173601264	-0.117636654	1.819890451
C 	-1.565891057	-1.949373395	2.461564372
H 	-1.226040223	-1.420402346	3.359576239
H 	-3.312045472	-2.380680274	0.353188832
H 	-1.659119908	-2.462487083	-0.260257368
H 	-2.709834618	-1.107745108	-0.725409446
H 	-4.049487226	-0.760328031	1.972336543
H 	-3.442069208	0.645913626	1.077843564
H 	-2.965437613	0.386725196	2.769049099
H 	-2.426179670	-2.567668317	2.747970476
H 	-0.765493707	-2.625738365	2.140045792
