26

H 	1.905130638	0.935209755	-0.002143859
C 	0.000000000	0.000000000	0.000000000
C 	1.358359988	-0.000000000	0.000000000
C 	2.169114332	-1.200072630	0.000000000
O 	3.426417887	-1.152046765	0.005550872
H 	-0.523212933	-0.956392593	0.005484413
C 	-2.263972765	0.980587919	0.026811718
C 	-3.140988482	2.062625690	0.024093939
C 	-2.601419567	3.346297968	-0.015684753
C 	-1.224830184	3.581599733	-0.051871318
C 	-0.362657988	2.491917263	-0.047258350
C 	-0.863051232	1.167907657	-0.006640652
H 	-2.664701496	-0.030500715	0.056511380
H 	-4.218504876	1.927611180	0.050730720
F 	-3.447435119	4.414247136	-0.019855826
H 	-0.852847545	4.601754204	-0.084063689
H 	0.708111541	2.670420767	-0.078372071
C 	1.537996232	-2.578773352	-0.013682297
H 	0.911342752	-2.707024880	-0.904700543
H 	0.900079585	-2.718997815	0.867477647
H 	2.327978705	-3.331773817	-0.013629130
Sn	5.004878687	0.628778863	0.064650539
Cl	3.889326274	1.180757435	2.099489315
Cl	3.944441539	1.282919830	-1.970552011
Cl	6.632026046	2.382874392	0.130807000
Cl	6.474039950	-1.217774821	0.030862506
