23

H 	1.932261838	0.917906685	-0.004220457
C 	0.000000000	0.000000000	0.000000000
C 	1.355715001	-0.000000000	0.000000000
C 	2.160418580	-1.202289448	-0.000000000
O 	3.369933533	-1.300017131	-0.012772373
H 	-0.508127813	-0.963485396	0.001283579
C 	-2.632282069	3.363321064	-0.028622691
C 	-1.245523586	3.575366791	0.000633434
C 	-0.370016870	2.494149638	0.011935966
C 	-0.865390439	1.169822156	-0.005752789
C 	-2.264058617	0.973944926	-0.032002999
C 	-3.139477023	2.059688359	-0.044247449
H 	-0.851620313	4.588921132	0.014522645
H 	0.700957900	2.675774346	0.035340383
H 	-2.656096759	-0.041228881	-0.044212809
H 	-4.213594482	1.891127455	-0.065670157
H 	-3.311433338	4.212783303	-0.037781727
F 	1.425173890	-2.375589835	0.016789234
Sn	5.371422220	0.554995239	-0.111635862
Cl	4.154412574	1.078903382	-2.064596748
Cl	6.513179101	-1.488666531	-0.086393553
Cl	7.133913327	2.135416383	-0.201839114
Cl	4.260342104	1.183691599	1.873957344
