33

H 	2.087731390	0.659845821	0.362769128
C 	0.000000000	0.000000000	0.000000000
C 	1.494927678	-0.177304853	0.000000000
C 	2.194706718	-1.455443177	0.000000000
O 	3.154352167	-1.666796085	0.796443266
H 	-0.482287841	-0.884575042	-0.430038322
H 	-1.527391719	1.397259535	-0.686465174
H 	-0.219563884	1.115584322	-1.861712843
C 	-0.448470026	1.241103219	-0.796977097
H 	0.065591058	2.145168633	-0.453912085
N 	1.777270874	-2.464681832	-0.840772829
C 	2.385679253	-3.792026337	-0.708447318
C 	1.069941266	-2.214538329	-2.099255524
H 	2.699834735	-3.943455307	0.324716471
H 	3.265997465	-3.894310360	-1.360196808
H 	1.646753600	-4.549374929	-0.994742781
H 	0.113642081	-2.753549886	-2.128233883
H 	1.685805861	-2.559045784	-2.942114038
H 	0.888649377	-1.147173650	-2.226822274
O 	-1.263349114	-2.371085889	4.173232133
H 	-1.223229364	-3.117061647	3.549429366
C 	-0.949655258	-1.204516984	3.503089926
C 	-0.876299636	-0.028149312	4.259110472
C 	-0.562277269	1.171270572	3.620783259
C 	-0.313660281	1.211473761	2.245968034
C 	-0.386126829	0.034003039	1.487850609
C 	-0.703621012	-1.173815770	2.126300515
H 	-1.043621149	-0.072137030	5.331302282
H 	-0.485860661	2.081998701	4.209311413
H 	-0.739473315	-2.098158985	1.548757307
H 	-0.044307617	2.153100288	1.777371535
I 	3.088785725	-0.463902529	3.190321866
I 	2.896462806	0.713915299	5.716186919
