33

H 	1.420992751	1.818812200	0.677285198
C 	3.507241763	1.079435097	0.514475914
C 	2.010696710	0.937211786	0.434656090
C 	1.297274334	-0.069984674	-0.339883829
O 	0.322271234	0.253281418	-1.077975494
H 	3.987060896	0.118813441	0.297710698
H 	5.060833907	1.758384889	1.886289580
H 	3.769804691	0.809340278	2.663154783
C 	3.982281945	1.565376360	1.898250814
H 	3.472354843	2.487626723	2.196101935
N 	1.717752422	-1.382220529	-0.309069301
C 	1.092947786	-2.346348527	-1.219887944
C 	2.448604617	-1.960442109	0.821497155
H 	0.760010193	-1.828730396	-2.120041178
H 	0.222557410	-2.830492511	-0.752742604
H 	1.828331397	-3.117703180	-1.476356357
H 	3.399386523	-2.400828408	0.492932080
H 	1.843187728	-2.752646974	1.284386885
H 	2.643494438	-1.198757388	1.576653911
O 	4.675255730	1.790040712	-4.256765932
H 	4.637492414	0.818032440	-4.225251328
C 	4.385365547	2.294200214	-3.003703962
C 	4.312113814	3.686305337	-2.871542985
C 	4.021719392	4.235945953	-1.623245741
C 	3.796487562	3.419015337	-0.511742887
C 	3.868873433	2.024746910	-0.642916708
C 	4.162646385	1.468577931	-1.896559653
H 	4.461066704	4.313422679	-3.745650279
H 	3.945333318	5.315650817	-1.523079953
H 	4.198146346	0.384861463	-2.012965367
H 	3.545146966	3.870550153	0.443106980
I 	0.360915523	2.676910701	-2.220969079
I 	0.523822228	5.162454237	-3.485789991
