24

H 	1.924024914	0.918144362	0.001675466
C 	0.000000000	0.000000000	0.000000000
C 	1.345454218	-0.000000000	0.000000000
C 	2.154835332	-1.213132031	-0.000000000
O 	3.359903981	-1.307475895	0.000959716
H 	-0.515548748	-0.961168859	-0.001413826
C 	-1.793273563	1.125999495	-1.271535419
C 	-0.902739818	1.207303620	0.001279507
C 	-0.131176406	2.541111335	0.014098192
C 	-1.809890083	1.110789320	1.260586621
H 	-1.213272970	1.163585986	2.178173635
H 	-2.510775684	1.955107502	-1.272957573
H 	-2.356610706	0.185971610	-1.302717947
H 	-1.184552768	1.193563453	-2.180081063
H 	-0.837866649	3.378480976	0.018456916
H 	0.505907763	2.644524361	-0.871804260
H 	0.500663548	2.630280942	0.905294234
H 	-2.525210753	1.941745441	1.264876191
H 	-2.376043688	0.172015779	1.271028116
F 	1.413259841	-2.383116731	-0.002027679
B 	4.851341442	0.455407433	0.010507380
F 	4.360230067	1.008175434	1.128012441
F 	4.450296459	0.940597456	-1.171323175
F 	5.925599842	-0.324792160	0.076723645
