24

H 	  1.932602	  0.920250	  0.002149
C 	  0.000000	  0.000000	  0.000000
C 	  1.351059	 -0.000000	 -0.000000
C 	  2.176092	 -1.185550	 -0.000000
O 	  3.414080	 -1.188153	  0.044085
H 	 -0.521871	 -0.958152	 -0.005036
C 	 -0.108142	  2.539347	  0.015482
C 	 -0.888343	  1.210780	  0.013085
C 	 -1.780640	  1.112782	  1.286232
C 	 -1.798563	  1.128760	 -1.248164
H 	 -2.370929	  0.194048	 -1.268564
H 	 -0.810937	  3.379586	  0.020746
H 	  0.525421	  2.635859	 -0.873234
H 	  0.530439	  2.629549	  0.901278
H 	 -2.488290	  1.949848	  1.296581
H 	 -1.172695	  1.162628	  2.196089
H 	 -2.354277	  0.178738	  1.301547
H 	 -2.507646	  1.964611	 -1.236722
H 	 -1.204065	  1.192691	 -2.166117
Cl	  1.400088	 -2.781319	 -0.073063
Al	  4.790381	  0.135985	  0.256503
F 	  3.983342	  1.555623	 -0.173056
F 	  5.953526	 -0.381174	 -0.823069
F 	  5.110993	 -0.002398	  1.892727
