29

H 	-1.734807588	-5.046733454	1.703215619
C 	-2.816027075	-1.020543246	2.310200681
C 	-1.006599490	-3.114304533	1.546604596
C 	1.370570223	-2.802601352	0.887612137
O 	6.609639843	0.870755379	-3.818220844
H 	-1.702878022	0.721676059	2.452393021
H 	-4.911592764	-0.022380985	5.738078471
H 	-2.222428111	-1.913151015	6.266621368
C 	-3.813478835	-1.597877396	4.982533034
H 	-4.996890703	-3.293535318	5.038809058
C 	-3.590876427	0.654039265	-2.104631809
C 	-4.905960559	-0.480388534	0.233797461
C 	-6.823664475	1.474694656	1.240586290
C 	-6.337363331	-2.898697278	-0.545991687
H 	-7.171024727	-3.874743251	1.076231893
H 	-2.694775644	2.465024821	-1.655436380
H 	-4.988115908	0.973552958	-3.595564139
H 	-2.132550046	-0.599202258	-2.855128109
H 	-8.089576367	2.063978652	-0.285800697
H 	-5.877117118	3.171711118	1.952643117
H 	-7.999927206	0.709171421	2.755424330
H 	-7.890789731	-2.420612071	-1.827376302
H 	-5.113790597	-4.233654566	-1.541421813
H 	5.851027973	-0.513267666	-2.890328764
Sn	7.722549232	3.700412585	-1.701393323
Cl	10.922156021	5.640333785	-3.959878543
Cl	9.345163111	2.467491774	2.211383695
Cl	3.752706011	-4.790241379	0.169451882
Cl	4.401144756	6.534032641	-1.148374855
