37

H 	1.908005735	0.921495749	0.174603097
C 	0.000000000	0.000000000	0.000000000
C 	1.359170225	-0.000000000	0.000000000
C 	2.188240943	-1.202602078	0.000000000
O 	3.249735707	-1.288176114	0.720206462
H 	-0.544796437	-0.929271716	-0.149438417
H 	-0.138496270	0.517540873	2.756079265
H 	-1.594181819	-0.567167192	2.290930870
H 	0.105318520	-1.307055385	2.554150189
C 	-0.524845073	-0.436551457	2.419576881
N 	1.874610602	-2.287884047	-0.747382769
C 	0.980099636	-2.258724481	-1.914913306
C 	2.648894810	-3.529772619	-0.580596887
H 	0.712026697	-1.233840974	-2.166756634
H 	1.505124365	-2.710249488	-2.765398138
H 	0.067505814	-2.837117494	-1.724186757
H 	1.984713180	-4.378516576	-0.773007294
H 	3.486978604	-3.562127408	-1.289683096
H 	3.045169732	-3.583065137	0.432896015
C 	-0.813583544	1.263783068	-0.168474961
C 	-1.210033278	1.393708789	-1.635878821
C 	-0.278256148	1.844369783	-2.584734321
C 	-0.617556252	1.916471839	-3.938229130
C 	-1.894338461	1.529417251	-4.364614843
C 	-2.828223788	1.075785040	-3.427794017
C 	-2.485809076	1.008236299	-2.072148108
H 	-0.220675499	2.130353328	0.146230123
H 	-1.715827736	1.230513725	0.450330067
H 	0.717913214	2.138918723	-2.259328282
H 	0.112203883	2.277004032	-4.660168649
H 	-2.159277095	1.585899232	-5.418057883
H 	-3.824022684	0.778247460	-3.749730343
H 	-3.218323910	0.659387430	-1.345627045
B 	3.702827365	-0.214242761	1.849401368
F 	3.971930857	0.976815663	1.172581379
F 	2.624227943	-0.096320745	2.726701902
F 	4.815289031	-0.798490354	2.410329902
