28

H 	2.239393210	0.098618570	1.781018540
C 	4.040059910	-0.426868800	0.806263550
C 	2.742127340	-0.608789120	1.127013650
C 	1.876598970	-1.566293350	0.442629620
O 	0.687864830	-1.236505360	0.096250870
H 	4.538680130	-1.028411720	0.042760730
O 	4.786224500	0.537052620	1.382038310
C 	6.103164350	0.776063510	0.776990450
C 	6.823992340	1.810587560	1.623524570
H 	5.946777380	1.130887560	-0.249992280
H 	6.649822770	-0.177366520	0.748461040
H 	6.255459470	2.746284300	1.657612830
H 	7.808531360	2.017636850	1.186530940
H 	6.966619170	1.447356410	2.647580770
N 	2.285639580	-2.827677160	0.152518820
C 	1.443104640	-3.683600040	-0.704052190
C 	3.418417720	-3.509174770	0.797536250
H 	0.799688110	-3.059569900	-1.322742090
H 	0.816154270	-4.343232230	-0.089197940
H 	2.097758160	-4.296255140	-1.333282560
H 	4.228484580	-3.686984020	0.078082790
H 	3.075947570	-4.479616230	1.178780970
H 	3.794578230	-2.911497960	1.627609540
Sn	-0.042107330	0.688351060	-0.852817380
Cl	0.030766950	1.625740020	1.347095250
Cl	-1.878781290	-0.704666550	-1.425129140
Cl	-0.816328170	2.691056200	-1.936468690
Cl	1.947844350	0.484473100	-2.192196590
