28

H 	2.260723092	0.023546091	1.906152257
C 	4.027402606	-0.437137954	0.844170286
C 	2.748435363	-0.655119557	1.212620736
C 	1.870003042	-1.589107282	0.512574833
O 	0.680139606	-1.239029988	0.193258022
H 	4.502202850	-0.999248047	0.037376404
O 	4.777893954	0.520037655	1.422383482
C 	6.040464474	0.841880067	0.748798493
C 	6.797988258	1.822653446	1.625802116
H 	5.802688901	1.274583339	-0.231345681
H 	6.603572199	-0.090466427	0.601853083
H 	6.214784663	2.737372239	1.775313399
H 	7.744872734	2.089626264	1.141786316
H 	7.018612632	1.381890256	2.604161234
N 	2.269993816	-2.838255484	0.173983577
C 	1.422052963	-3.656941609	-0.709772620
C 	3.412111027	-3.540140254	0.774561510
H 	0.768212891	-3.008573651	-1.290662213
H 	0.806822604	-4.348225971	-0.118962718
H 	2.071612190	-4.235312066	-1.375144663
H 	4.205008281	-3.699207643	0.032594987
H 	3.074940341	-4.519700123	1.135483465
H 	3.807785438	-2.966211333	1.611684511
Sn	0.042834814	0.664992313	-0.865529330
Cl	0.160420513	1.727331827	1.270140189
Cl	-1.851621500	-0.668228633	-1.379737155
Cl	-0.627427480	2.636795375	-2.067216401
Cl	2.013952824	0.277796040	-2.191907487
