34

H 	1.711501309	2.190810285	-0.631649483
C 	3.526609449	1.074152672	-0.642030152
C 	2.154182618	1.206260880	-0.548403627
C 	1.244661218	0.130178915	-0.296399539
O 	0.004828930	0.328693638	-0.114911640
H 	3.922980216	0.060168150	-0.609813157
H 	3.403167317	2.115054889	1.868144884
H 	5.108452932	1.378838617	1.710511242
H 	3.638805763	0.286248257	2.069845453
C 	4.032633741	1.242878740	1.743886752
C 	0.616879288	-2.332082269	0.070992957
C 	1.722677367	-1.315889227	-0.237048125
H 	-0.165683841	-2.304500988	-0.693057181
H 	0.142940921	-2.119312713	1.034126830
H 	1.038395509	-3.342654067	0.103491024
H 	2.208582346	-1.551245895	-1.194998690
H 	2.517337467	-1.373784867	0.522523738
O 	6.433859493	0.766512346	-0.618060108
H 	5.765987845	0.193759469	-0.203889329
C 	5.842033453	1.909006471	-1.106429495
C 	6.713287195	2.887826792	-1.599524537
C 	6.205653134	4.089403745	-2.085189269
C 	4.820780647	4.325591782	-2.087993990
C 	3.956180426	3.352639099	-1.606251291
C 	4.435104580	2.117083011	-1.107001786
H 	7.781671127	2.689516761	-1.579675447
H 	6.889266361	4.846447488	-2.462281869
H 	2.885769495	3.532386695	-1.636983608
H 	4.424489391	5.261360881	-2.472705259
Sn	-1.234611535	2.251829903	0.244523950
Cl	-2.938353457	0.638733933	0.541654669
Cl	-0.583621044	2.854616670	-1.977510714
Cl	-2.549456708	4.209176996	0.678174214
Cl	0.344008877	2.615782129	2.013677003
