64

C 	-3.544063598	2.057145541	4.305263007
C 	-1.616932556	0.713733325	3.160787115
C 	-0.586153057	-1.583371662	4.226260644
O 	1.126951403	-2.863149071	3.266116500
H 	1.662862614	-7.887968329	-6.499129213
H 	-4.066536740	1.483017019	6.214172195
H 	-0.794678704	1.340008008	1.387017779
H 	11.282408817	1.182896820	1.465207598
H 	9.260060692	-1.151699936	2.763222924
H 	1.104673100	-7.447960019	-3.229981044
H 	10.590049958	-1.616950168	-0.262041197
C 	-7.301145118	-0.128187587	3.044306344
H 	-7.125030750	0.124861915	1.018960754
H 	4.123143788	-6.829047823	-4.514278035
H 	-2.811332668	-2.862315740	-2.135014824
H 	-8.665424352	1.044576030	4.027875154
H 	-6.921750568	-1.994634705	3.803451072
N 	5.553958144	-0.737080683	-0.845999035
C 	4.580660165	-1.095579247	-3.257102714
N 	2.248949039	-2.333044214	-3.229282828
C 	7.542818810	1.109634311	-0.269143053
H 	4.429749962	-1.237038740	0.621861020
C 	1.404125338	-3.893092895	-5.367953403
H 	1.755811004	-3.032093006	-1.515194728
H 	8.166238362	1.813598375	-2.107252744
C 	2.093218712	-6.679813297	-4.879687157
C 	9.802963512	-0.191946493	1.012025138
H 	6.055995617	5.693606675	-2.078972955
H 	2.510873659	-3.232904998	-6.983452715
C 	6.466114166	3.345799977	1.226403399
C 	6.069983181	3.242939198	3.847123512
C 	5.010398436	5.279928562	5.146827894
C 	4.324950891	7.474070139	3.852951295
C 	4.712642020	7.607880890	1.247016210
C 	5.769189672	5.564990762	-0.046210323
H 	6.584003521	1.560980789	4.909557510
H 	4.721742638	5.150459154	7.180505607
H 	3.501728460	9.064330684	4.865647739
H 	4.196611918	9.311441287	0.215053932
C 	-1.453640168	-3.381918955	-6.028147139
C 	-2.238846431	-4.990592368	-8.333214411
H 	-4.125094912	-4.432235991	-8.980233563
H 	-2.319780510	-7.008742163	-7.892192963
H 	-0.934331845	-4.733569716	-9.921208419
C 	-1.763242503	-0.566160208	-6.725475279
H 	-0.596416424	-0.064880685	-8.360013865
H 	-3.735708529	-0.151049778	-7.202513792
H 	-1.202762131	0.662114435	-5.161865957
C 	-3.233891360	-4.008323273	-3.801841271
H 	-3.132637661	-6.000460214	-3.252144697
H 	-5.199267889	-3.622454237	-4.331179523
C 	-6.082628416	9.526730623	2.360650127
C 	-6.523687526	8.530732176	4.764136490
C 	-5.702079054	6.099703905	5.357393670
C 	-4.403382198	4.608710466	3.574338976
C 	-3.975912240	5.645307335	1.160049219
C 	-4.806278082	8.069078282	0.564802270
H 	-7.514837200	9.648836391	6.177649685
H 	-6.066240219	5.344328406	7.236027537
H 	-3.005649766	4.551199183	-0.280374999
H 	-4.459080742	8.825639056	-1.315581049
H 	-6.731380182	11.419841606	1.886298124
H 	-1.428023381	-2.192329651	6.059321327
O 	5.652190530	-0.387205072	-5.206603692
