64

C 	-3.544063601	2.057145542	4.305263009
C 	-1.616932557	0.713733317	3.160787108
C 	-0.586153059	-1.583371663	4.226260643
O 	1.126951394	-2.863149066	3.266116493
H 	1.662862611	-7.887968333	-6.499129217
H 	-4.066536749	1.483017018	6.214172196
H 	-0.794678699	1.340008009	1.387017770
H 	11.282408815	1.182896822	1.465207607
H 	9.260060701	-1.151699939	2.763222929
H 	1.104673109	-7.447960021	-3.229981052
H 	10.590049950	-1.616950172	-0.262041203
C 	-7.301145126	-0.128187586	3.044306345
H 	-7.125030744	0.124861911	1.018960751
H 	4.123143784	-6.829047828	-4.514278032
H 	-2.811332668	-2.862315740	-2.135014833
H 	-8.665424355	1.044576031	4.027875163
H 	-6.921750567	-1.994634696	3.803451065
N 	5.553958138	-0.737080684	-0.845999039
C 	4.580660163	-1.095579242	-3.257102716
N 	2.248949040	-2.333044223	-3.229282820
C 	7.542818814	1.109634316	-0.269143056
H 	4.429749957	-1.237038735	0.621861018
C 	1.404125347	-3.893092897	-5.367953403
H 	1.755811007	-3.032093010	-1.515194727
H 	8.166238372	1.813598370	-2.107252741
C 	2.093218717	-6.679813300	-4.879687149
C 	9.802963505	-0.191946498	1.012025139
H 	6.055995613	5.693606667	-2.078972960
H 	2.510873665	-3.232905006	-6.983452721
C 	6.466114159	3.345799984	1.226403395
C 	6.069983174	3.242939193	3.847123517
C 	5.010398441	5.279928565	5.146827903
C 	4.324950901	7.474070145	3.852951293
C 	4.712642018	7.607880898	1.247016220
C 	5.769189680	5.564990758	-0.046210324
H 	6.584003532	1.560980794	4.909557503
H 	4.721742643	5.150459162	7.180505608
H 	3.501728457	9.064330680	4.865647734
H 	4.196611923	9.311441291	0.215053936
C 	-1.453640168	-3.381918948	-6.028147145
C 	-2.238846440	-4.990592378	-8.333214404
H 	-4.125094915	-4.432235995	-8.980233569
H 	-2.319780509	-7.008742169	-7.892192958
H 	-0.934331855	-4.733569718	-9.921208413
C 	-1.763242512	-0.566160216	-6.725475275
H 	-0.596416433	-0.064880690	-8.360013868
H 	-3.735708529	-0.151049773	-7.202513788
H 	-1.202762136	0.662114428	-5.161865949
C 	-3.233891359	-4.008323271	-3.801841268
H 	-3.132637656	-6.000460206	-3.252144692
H 	-5.199267894	-3.622454241	-4.331179524
C 	-6.082628415	9.526730623	2.360650120
C 	-6.523687528	8.530732173	4.764136490
C 	-5.702079062	6.099703898	5.357393679
C 	-4.403382205	4.608710467	3.574338971
C 	-3.975912245	5.645307341	1.160049217
C 	-4.806278081	8.069078292	0.564802277
H 	-7.514837200	9.648836397	6.177649684
H 	-6.066240217	5.344328403	7.236027537
H 	-3.005649774	4.551199186	-0.280375002
H 	-4.459080746	8.825639050	-1.315581044
H 	-6.731380185	11.419841606	1.886298121
H 	-1.428023387	-2.192329651	6.059321326
O 	5.652190525	-0.387205080	-5.206603695
