28

H 	  1.991294	  0.962675	  0.017486
C 	  0.000000	  0.000000	  0.000000
C 	  1.478391	  0.000000	 -0.000000
C 	  2.382344	 -1.104144	 -0.000000
O 	  3.597541	 -1.056274	  0.118376
H 	 -0.354251	 -1.031808	 -0.097988
H 	 -1.598075	  0.810974	 -1.258978
H 	 -0.145335	  0.336677	 -2.153091
C 	 -0.504415	  0.803168	 -1.229670
H 	 -0.148220	  1.838270	 -1.212854
I 	  1.459862	 -3.140010	 -0.264214
C 	  0.024605	 -0.342560	  2.525208
C 	 -0.576359	  0.522880	  1.393992
C 	 -2.108554	  0.339330	  1.388866
C 	 -0.228607	  2.004817	  1.641690
H 	 -0.653781	  2.659831	  0.873534
H 	 -0.421280	 -0.066853	  3.488261
H 	  1.108692	 -0.202744	  2.606062
H 	 -0.166870	 -1.408403	  2.353961
H 	 -2.513438	  0.591504	  2.376799
H 	 -2.381669	 -0.700319	  1.169363
H 	 -2.601703	  0.987485	  0.656819
H 	 -0.638604	  2.322089	  2.608275
H 	  0.854373	  2.169107	  1.676883
B 	  4.708873	  0.777410	  1.043251
F 	  3.908541	  0.807518	  2.117013
F 	  4.443979	  1.608307	  0.026194
F 	  5.883800	  0.160929	  1.108269
