28

H 	0.747554018	-1.533293434	0.348757255
C 	-0.694701685	0.056006088	0.883849820
C 	0.589739115	-0.453888486	0.358627589
C 	1.697172137	0.268142170	-0.178522080
O 	2.691620952	-0.203651112	-0.709079056
H 	-0.662302923	1.150761657	0.897416026
H 	-1.815954541	-0.068611171	2.761030956
H 	-0.057711081	-0.066262543	2.969411436
C 	-0.875221271	-0.440447560	2.344174482
H 	-0.874414369	-1.533572875	2.404758502
I 	1.595268898	2.509998556	-0.007566695
C 	-1.583754488	0.200736830	-1.500110500
C 	-1.905713095	-0.327253378	-0.083295879
C 	-3.181308027	0.373394695	0.429818540
C 	-2.134956341	-1.851150931	-0.143338134
H 	-2.388069807	-2.266835343	0.837997205
H 	-2.436888666	0.032491549	-2.168058165
H 	-0.715021306	-0.309434813	-1.931803164
H 	-1.370694932	1.276077719	-1.484067549
H 	-4.001910659	0.211392135	-0.280041663
H 	-3.027512068	1.455569830	0.524098657
H 	-3.505925751	-0.014818489	1.400954928
H 	-2.970447789	-2.070925168	-0.819133703
H 	-1.256055328	-2.380827866	-0.528112939
B 	2.752239541	-2.365167908	-1.590565771
F 	1.618502479	-2.188557225	-2.281832807
F 	2.686662549	-2.984299145	-0.404253049
F 	3.926836487	-2.197504821	-2.188012442
