22

H 	1.943255313	0.920474843	0.000047825
C 	0.000000000	0.000000000	0.000000000
C 	1.362515896	0.000000000	-0.000000000
C 	2.186671025	-1.170843454	0.000000000
O 	3.431012334	-1.168898140	0.018820347
H 	-0.513661417	-0.961017795	-0.000070484
C 	-2.593643557	3.377803571	0.004589555
C 	-1.204321028	3.579354033	-0.004637959
C 	-0.338133984	2.492354142	-0.005383288
C 	-0.849812917	1.170899241	0.002204274
C 	-2.253011451	0.985933558	0.011358244
C 	-3.116196589	2.079130081	0.012930272
H 	-0.802376741	4.589540130	-0.010856749
H 	0.734834074	2.663105662	-0.012255075
H 	-2.653684614	-0.025783241	0.017686727
H 	-4.192106238	1.922981718	0.020350380
H 	-3.264936581	4.233543217	0.005137668
Cl	1.416802828	-2.774343558	-0.036107736
Al	4.797312151	0.161980746	0.130769824
F 	3.932408180	1.600251076	-0.090140492
F 	5.805167983	-0.248899589	-1.136806613
F 	5.365079232	-0.056831982	1.689014060
