22

H 	  1.943255	  0.920475	  0.000048
C 	  0.000000	  0.000000	  0.000000
C 	  1.362516	 -0.000000	 -0.000000
C 	  2.186671	 -1.170843	 -0.000000
O 	  3.431012	 -1.168898	  0.018820
H 	 -0.513661	 -0.961018	 -0.000070
C 	 -2.593644	  3.377804	  0.004590
C 	 -1.204321	  3.579354	 -0.004638
C 	 -0.338134	  2.492354	 -0.005383
C 	 -0.849813	  1.170899	  0.002204
C 	 -2.253011	  0.985934	  0.011358
C 	 -3.116197	  2.079130	  0.012930
H 	 -0.802377	  4.589540	 -0.010857
H 	  0.734834	  2.663106	 -0.012255
H 	 -2.653685	 -0.025783	  0.017687
H 	 -4.192106	  1.922982	  0.020350
H 	 -3.264937	  4.233543	  0.005138
Cl	  1.416803	 -2.774344	 -0.036108
Al	  4.797312	  0.161981	  0.130770
F 	  3.932408	  1.600251	 -0.090140
F 	  5.805168	 -0.248900	 -1.136807
F 	  5.365079	 -0.056832	  1.689014
