22

H 	-0.246101990	0.219171050	-0.138560330
C 	-0.081464120	-1.919381890	0.004126340
C 	0.390935900	-0.641758340	0.056898000
C 	1.742739320	-0.270684960	0.353820430
O 	2.166048510	0.899507380	0.405838780
H 	0.615548600	-2.734099910	0.200397290
C 	-4.064056100	-3.172780920	-0.848106910
C 	-3.765045620	-1.800512790	-0.829756130
C 	-2.472205940	-1.367687170	-0.555844480
C 	-1.445014000	-2.307871260	-0.290242890
C 	-1.764225600	-3.687672890	-0.312016240
C 	-3.061238590	-4.115399510	-0.589205270
H 	-4.547319940	-1.071891120	-1.030157850
H 	-2.255896050	-0.302669850	-0.545433940
H 	-0.980704830	-4.415790360	-0.109671120
H 	-3.292891390	-5.177963760	-0.604422730
H 	-5.078036180	-3.503280700	-1.064324290
Cl	2.941012780	-1.545192370	0.686504020
Al	1.389343250	2.634882100	0.215884980
F 	-0.152256760	2.293475930	-0.398865940
F 	2.427336450	3.376553560	-0.864673500
F 	1.378779650	3.179890830	1.798623360
