29

H 	  1.983891	  0.963376	 -0.003466
C 	  0.000000	  0.000000	  0.000000
C 	  1.475318	 -0.000000	  0.000000
C 	  2.374035	 -1.099874	  0.000000
O 	  3.604885	 -1.035331	  0.082093
H 	 -0.360320	 -1.030399	 -0.094198
H 	 -1.589211	  0.802346	 -1.273597
H 	 -0.121036	  0.348844	 -2.154256
C 	 -0.496400	  0.806225	 -1.233088
H 	 -0.149398	  1.843915	 -1.204781
I 	  1.521004	 -3.125954	 -0.175142
C 	 -0.034691	 -0.378927	  2.519473
C 	 -0.574533	  0.533992	  1.395176
C 	 -2.113360	  0.430206	  1.363188
C 	 -0.153232	  1.992154	  1.668843
H 	 -0.514951	  2.675701	  0.892958
H 	 -0.472604	 -0.087948	  3.481444
H 	  1.054572	 -0.302858	  2.610655
H 	 -0.288572	 -1.429572	  2.335283
H 	 -2.516158	  0.676393	  2.353390
H 	 -2.439104	 -0.587009	  1.112086
H 	 -2.562185	  1.124383	  0.645327
H 	 -0.580728	  2.322787	  2.623151
H 	  0.934563	  2.095411	  1.745753
Ti	  5.160650	  0.585137	  0.474529
Cl	  6.642344	  2.200024	  0.866335
Cl	  6.553812	 -1.141430	  0.463682
Cl	  4.409838	  1.369385	 -1.491087
Cl	  3.895625	  0.935840	  2.303410
