26

H 	1.787003453	-1.334876744	0.054873773
C 	0.000000000	0.000000000	0.000000000
C 	0.701751122	-1.327229535	0.000000000
C 	0.075919236	-2.631980384	0.000000000
O 	0.741355890	-3.693365582	-0.170821942
H 	-1.010424423	-0.119113285	-0.404846136
H 	0.244794194	2.000356713	-0.839693348
H 	0.759426709	0.682286276	-1.922498178
C 	0.744856620	1.026650917	-0.883215088
H 	1.783275007	1.156066095	-0.560647130
N 	-1.284105066	-2.713875411	0.166937687
H 	-1.676514637	-3.645950506	0.236329447
H 	-1.823242940	-1.941555894	0.542096977
C 	0.954392769	0.973112812	2.187186496
C 	0.819152708	1.364086424	3.520606294
C 	-0.416791592	1.245661551	4.167001730
C 	-1.517028672	0.729609652	3.475664025
C 	-1.343103401	0.346799095	2.151778458
C 	-0.134409758	0.460390475	1.459225457
H 	1.919873551	1.067752418	1.697399382
H 	1.678390321	1.760114026	4.056068531
H 	-0.527492529	1.549612696	5.204817685
H 	-2.491881176	0.621308204	3.943113811
F 	-2.444223189	-0.176057838	1.486551083
I 	2.974871677	-3.551482833	-1.591381856
I 	5.284181183	-3.443038215	-3.171500787
