23

H 	-1.148982546	-1.801071501	-0.002273185
C 	0.000000000	0.000000000	0.000000000
C 	-1.151388340	-0.716430670	0.000000000
C 	-2.483173996	-0.104235958	-0.000000000
O 	-3.508170127	-0.811197605	-0.008521974
H 	-0.076772934	1.087653753	0.000085118
C 	2.420305708	0.486249934	-0.008041254
C 	3.762382017	0.118391004	-0.010205217
C 	4.111489263	-1.237939147	-0.003779055
C 	3.113235088	-2.216821890	0.003624060
C 	1.781108779	-1.825197460	0.003638789
C 	1.376670015	-0.472420780	-0.001228866
H 	2.147510225	1.539540939	-0.012026517
H 	4.535162925	0.882432949	-0.016073437
H 	5.156617088	-1.537106582	-0.004902969
H 	3.350265328	-3.277050846	0.008524064
F 	0.837628236	-2.810103971	0.011262728
C 	-2.648077100	1.409064530	0.008784804
H 	-2.183721368	1.853203622	-0.880358315
H 	-2.167107552	1.847991036	0.891468417
H 	-3.713220206	1.648185182	0.018715294
I 	-3.526624659	-3.534685723	-0.069697315
I 	-3.609951326	-6.323328910	-0.140492816
