30

H 	2.208917820	0.668459310	0.221296580
C 	4.129632090	-0.255002610	0.126929330
C 	2.779421650	-0.254265340	0.127022700
C 	1.937839930	-1.414867740	-0.204652900
O 	0.904555950	-1.245819970	-0.946624610
H 	4.656551710	-1.193981630	-0.045440750
C 	4.510284400	2.232929090	0.344156100
C 	5.385006020	3.298608150	0.549869780
C 	6.759396570	3.079923900	0.729661360
C 	7.227780150	1.769635010	0.688038100
C 	6.383336740	0.685762230	0.478379260
C 	4.998120640	0.908076240	0.314473610
H 	3.453539020	2.429654170	0.185402190
H 	5.000873980	4.315953720	0.564503400
H 	7.453022410	3.901388920	0.888270920
F 	8.570634120	1.536230360	0.855561830
H 	6.797225410	-0.319185740	0.448239790
N 	2.201869030	-2.661293610	0.238762470
C 	1.414713100	-3.805715350	-0.259417430
C 	3.158006410	-2.978958990	1.310496930
H 	0.870211380	-3.513182470	-1.155859870
H 	0.702123020	-4.134937130	0.507437400
H 	2.101917470	-4.628970440	-0.485745440
H 	4.060751280	-3.453337810	0.904525120
H 	2.678877770	-3.681339820	2.002171690
H 	3.433747270	-2.075227530	1.853402420
Al	0.324400880	0.239286400	-1.913159540
F 	1.489627580	0.411743390	-3.119152560
F 	0.373444160	1.504397860	-0.782246920
F 	-1.208953890	-0.204940670	-2.427908740
