27

H 	-0.195695861	-2.108663255	0.092128176
C 	0.000000000	0.000000000	0.000000000
C 	-0.692545232	-1.148565643	0.000000000
C 	-2.163099680	-1.231411166	0.000000000
O 	-2.796026720	-2.165425735	0.567621280
H 	-0.540646934	0.950455471	-0.018979106
C 	2.225908754	-1.216900904	0.125712793
C 	1.500438457	0.142935539	0.109122388
C 	1.798721813	0.911464844	1.426836762
C 	1.990286268	0.987606055	-1.098772008
H 	1.488442103	1.962721954	-1.131814322
H 	3.307741984	-1.058849571	0.198121365
H 	2.029243394	-1.787457578	-0.789486976
H 	1.917280235	-1.824574787	0.983450018
H 	2.878422192	1.076419452	1.524522322
H 	1.453700135	0.340638021	2.295678037
H 	1.302499054	1.889624972	1.437473871
H 	3.069228869	1.165044822	-1.016766680
H 	1.798750564	0.467983845	-2.044911541
N 	-2.874473787	-0.270261166	-0.634053748
H 	-3.886720944	-0.324687221	-0.617087242
H 	-2.424377639	0.407594199	-1.233714730
Sn	-2.114954010	-3.812765453	2.096311816
Cl	-4.455740185	-4.125460013	2.188204740
Cl	-1.150462511	-1.975008902	3.271995711
Cl	-1.484592372	-5.511078772	3.665296897
Cl	-0.911952918	-4.696085176	0.233916876
