27

H 	2.440275360	0.763263290	0.084773620
C 	4.241538250	-0.297730500	0.376080600
C 	2.906708300	-0.196077770	0.274102420
C 	1.957520810	-1.322962050	0.339637140
O 	0.767811890	-1.239861510	-0.078202870
H 	4.704249260	-1.279678250	0.515492810
C 	4.567864960	2.199267370	0.032462280
C 	5.241207180	0.834377230	0.280272840
C 	6.217067190	0.508113760	-0.885250590
C 	6.040898390	0.875076050	1.615204320
H 	6.538931680	-0.083106340	1.810856180
H 	5.331848920	2.982947400	-0.029351530
H 	3.881134270	2.461953600	0.845840400
H 	4.004533940	2.202424640	-0.907962420
H 	6.989255410	1.284524090	-0.952206470
H 	5.683651330	0.467358440	-1.841963530
H 	6.717802330	-0.455642260	-0.727088850
H 	6.812412400	1.653023040	1.560639570
H 	5.381552400	1.102147780	2.461227790
N 	2.361910660	-2.504629790	0.864622770
H 	1.697740810	-3.269690780	0.901738740
H 	3.258334490	-2.606804180	1.320772540
Sn	-0.522656510	0.493657300	-1.012235640
Cl	-2.081783780	-1.282089650	-1.124650640
Cl	1.224587300	0.606437530	-2.633608150
Cl	-1.903805640	2.218126990	-1.940932700
Cl	-0.113967380	1.552264690	1.089570330
