27

H 	2.027062677	0.941611555	0.105926978
C 	0.000000000	0.000000000	0.000000000
C 	1.499119010	-0.000000000	-0.000000000
C 	2.326759128	-1.183084543	0.000000000
O 	3.585696079	-1.137778209	0.202555217
H 	-0.359358348	-0.645586809	-0.814443002
H 	-1.664148401	1.389981626	-0.236991738
H 	-0.227811542	1.805073520	-1.201640586
C 	-0.569811661	1.414939967	-0.236376608
H 	-0.241119797	2.104643981	0.548042558
N 	1.762195102	-2.394484944	-0.245266686
H 	2.360306811	-3.211890267	-0.218222730
H 	0.768750255	-2.518510803	-0.398781598
C 	-0.252805078	0.008438910	2.554158855
C 	-0.717848165	-0.550841151	3.745747946
C 	-1.438568165	-1.750711579	3.727143925
C 	-1.681097425	-2.402143896	2.513354508
C 	-1.198286902	-1.819800324	1.348217975
C 	-0.502235881	-0.610479094	1.316908068
H 	0.334599681	0.922208772	2.579426515
H 	-0.508545218	-0.054531119	4.689666113
H 	-1.802543612	-2.188676699	4.653286544
H 	-2.223898966	-3.342013986	2.461854177
F 	-1.401884647	-2.498385216	0.152707466
Zn	4.666352084	0.250472308	1.247406664
Cl	3.286420266	1.411833540	2.482676732
Cl	6.754485981	0.051272250	0.793351658
