27

H 	1.758478810	1.871554698	1.424253630
C 	3.543081460	1.016977130	0.379396460
C 	2.077140455	1.229017730	0.610510205
C 	1.024888042	0.745719308	-0.251965705
O 	-0.188753955	1.118948544	-0.126360901
H 	3.729236909	-0.053726578	0.211533803
H 	5.446300476	1.285507404	1.410537951
H 	4.088269001	0.879366827	2.486043691
C 	4.381332758	1.453482295	1.599811283
H 	4.233018914	2.516715991	1.815636462
N 	1.318369914	-0.157340528	-1.223938205
H 	0.566738430	-0.464551240	-1.829984528
H 	2.258199909	-0.491280530	-1.400249183
C 	3.894535782	3.156510901	-0.994133365
C 	4.282271146	3.819762467	-2.159767299
C 	4.739917643	3.093127294	-3.265223531
C 	4.794601526	1.696541575	-3.210203019
C 	4.395289384	1.069991206	-2.036423811
C 	3.961703186	1.755506643	-0.900643567
H 	3.508774857	3.724770233	-0.152154739
H 	4.217394787	4.903543075	-2.207970315
H 	5.043078715	3.606609348	-4.174322683
H 	5.130334220	1.099048870	-4.053368252
F 	4.407061608	-0.319329741	-2.007725462
Zn	-0.918500789	2.864388687	0.653177237
Cl	0.718937313	4.308512423	0.763481232
Cl	-3.019547202	2.672714308	1.046896280
