33

H 	2.006923435	0.851283204	0.461130988
C 	0.000000000	0.000000000	0.000000000
C 	1.508162191	-0.000000000	0.000000000
C 	2.301726329	-1.227757689	-0.000000000
O 	3.133793710	-1.438095380	0.947329564
H 	-0.387898653	-0.638826216	-0.798677152
H 	-1.671799580	1.394212303	-0.096995912
H 	-0.303441798	1.819777062	-1.151971052
C 	-0.579345332	1.415530460	-0.171231413
H 	-0.195457161	2.099680914	0.592633641
N 	2.129524502	-2.177936304	-0.949821544
C 	2.744913195	-3.502074715	-0.790468310
C 	1.424307030	-1.939797161	-2.212084754
H 	3.041089788	-3.637605259	0.249366610
H 	3.628731030	-3.598025642	-1.434990052
H 	2.011651869	-4.265000319	-1.075818406
H 	0.470895795	-2.481682716	-2.233214741
H 	2.050649409	-2.293287523	-3.040287178
H 	1.246401928	-0.872020164	-2.345488939
C 	-0.266641431	-0.004957846	2.563948592
C 	-0.547487710	-0.656023071	3.766286399
C 	-0.952800750	-1.994751172	3.762156796
C 	-1.080432600	-2.682020198	2.552291277
C 	-0.789868225	-2.008717378	1.372171948
C 	-0.391603992	-0.668243697	1.328413809
H 	0.078641290	1.024050495	2.582411765
H 	-0.424618871	-0.125043766	4.706005942
H 	-1.149786112	-2.511638388	4.697226552
H 	-1.383623575	-3.724625128	2.513961878
F 	-0.902376039	-2.708892423	0.185405726
Zn	2.947691533	-0.747037472	2.868782745
Cl	2.797653223	-2.499766955	4.121848496
Cl	3.065161874	1.425855500	2.957083511
