26

H 	2.028054018	0.945509538	0.086037522
C 	0.000000000	0.000000000	0.000000000
C 	1.491694478	-0.000000000	0.000000000
C 	2.256884816	-1.181749183	0.000000000
O 	3.530376957	-1.228751791	0.085944231
H 	-0.374700503	-0.973086907	-0.342710364
H 	-1.707328763	1.122437698	-0.745010858
H 	-0.376928350	0.959743065	-1.917037505
C 	-0.618053847	1.117543386	-0.860023291
H 	-0.235846854	2.102349572	-0.572212483
H 	1.742320696	-2.148478937	-0.096944113
C 	-0.827867984	0.261922872	4.261553011
C 	-1.028390252	-0.943889393	3.576185874
C 	-0.756783290	-1.024333661	2.210332202
C 	-0.310481518	0.107931258	1.504245939
C 	-0.091950384	1.310555054	2.205265398
C 	-0.358324150	1.387001935	3.572140556
H 	-1.393369072	-1.819594845	4.107855428
H 	-0.907782645	-1.962898864	1.680536816
H 	0.285131746	2.185724482	1.682976958
H 	-0.191235258	2.321340544	4.102607563
H 	-1.027702834	0.321278970	5.328805764
Al	4.844797140	0.083819939	0.440926646
F 	4.065030648	1.546637341	0.090191299
F 	6.085330528	-0.313670628	-0.609355328
F 	5.120804860	-0.143175332	2.080493585
