26

H 	0.531499523	-1.774387905	0.377580014
C 	-0.806849198	-0.133188058	1.105370924
C 	0.389016900	-0.693839693	0.412026540
C 	1.303657308	0.103757000	-0.301639925
O 	2.290105259	-0.342412585	-0.979305795
H 	-0.673924066	0.943854333	1.269868908
H 	-2.058851289	-0.429540391	2.858809012
H 	-0.317125462	-0.634371403	3.166244633
C 	-1.122164958	-0.820141444	2.446715346
H 	-1.222375769	-1.903937519	2.327953684
H 	1.189953292	1.196956565	-0.274678497
C 	-3.841460494	-0.592682823	-1.975992719
C 	-3.324313359	0.675230660	-1.677874029
C 	-2.347568220	0.816927528	-0.692131261
C 	-1.896592077	-0.302730727	0.030885226
C 	-2.406952148	-1.576431977	-0.289592315
C 	-3.379035387	-1.716552031	-1.279828324
H 	-3.681180487	1.550423864	-2.215856187
H 	-1.942950052	1.801463928	-0.465502021
H 	-2.045317629	-2.456848954	0.234796945
H 	-3.770040723	-2.703337959	-1.515775225
H 	-4.593842686	-0.704844862	-2.753055307
Al	2.817375309	-2.085920842	-1.487953740
F 	2.009049689	-3.092511674	-0.390561192
F 	4.481074542	-2.056508573	-1.311166171
F 	2.210009564	-2.185167528	-3.049089162
