26

H 	2.021524681	0.946294751	-0.050536382
C 	0.000000000	0.000000000	0.000000000
C 	1.486590653	-0.000000000	-0.000000000
C 	2.287272530	-1.178301415	-0.000000000
O 	3.534720060	-1.200074539	-0.029725088
H 	-0.333271753	-1.045382298	0.043784983
H 	-1.570369653	0.509533377	-1.445363722
H 	-0.054056174	-0.007335452	-2.180564245
C 	-0.483393514	0.571630690	-1.357656969
H 	-0.181897066	1.612766073	-1.496866126
H 	1.745681841	-2.146312946	0.031521123
C 	-0.092362226	-0.016968087	2.539234424
C 	-0.631317039	0.696838912	1.281179646
C 	-2.163395374	0.527429518	1.250204718
C 	-0.288042295	2.196429259	1.367628476
H 	-0.657402557	2.757029893	0.504782851
H 	-0.553773420	0.399610512	3.440020099
H 	0.990663640	0.097744405	2.642620412
H 	-0.316189868	-1.089061007	2.520443343
H 	-2.595869187	0.879286736	2.192453585
H 	-2.450521554	-0.522821028	1.130230217
H 	-2.632483766	1.101624486	0.447482535
H 	-0.754539228	2.631451000	2.257361919
H 	0.788011843	2.372035809	1.451960921
I 	5.437208736	0.972277629	-0.074752804
I 	7.281027724	2.973442679	-0.110665580
