26

H 	  2.021525	  0.946295	 -0.050536
C 	  0.000000	  0.000000	  0.000000
C 	  1.486591	  0.000000	 -0.000000
C 	  2.287273	 -1.178301	 -0.000000
O 	  3.534720	 -1.200075	 -0.029725
H 	 -0.333272	 -1.045382	  0.043785
H 	 -1.570370	  0.509533	 -1.445364
H 	 -0.054056	 -0.007335	 -2.180564
C 	 -0.483394	  0.571631	 -1.357657
H 	 -0.181897	  1.612766	 -1.496866
H 	  1.745682	 -2.146313	  0.031521
C 	 -0.092362	 -0.016968	  2.539234
C 	 -0.631317	  0.696839	  1.281180
C 	 -2.163395	  0.527430	  1.250205
C 	 -0.288042	  2.196429	  1.367628
H 	 -0.657403	  2.757030	  0.504783
H 	 -0.553773	  0.399611	  3.440020
H 	  0.990664	  0.097744	  2.642620
H 	 -0.316190	 -1.089061	  2.520443
H 	 -2.595869	  0.879287	  2.192454
H 	 -2.450522	 -0.522821	  1.130230
H 	 -2.632484	  1.101624	  0.447483
H 	 -0.754539	  2.631451	  2.257362
H 	  0.788012	  2.372036	  1.451961
I 	  5.437209	  0.972278	 -0.074753
I 	  7.281028	  2.973443	 -0.110666
