26

H 	1.139125993	-2.885703252	-0.018437071
C 	-1.456550897	0.064720720	1.517060533
C 	0.850043317	-0.862426862	0.208663985
C 	2.821521573	0.732699366	-0.694813063
O 	4.796798577	-0.011047869	-1.746950663
H 	-1.365453105	2.137348111	1.561189192
H 	-2.931371305	-0.077969851	5.389833343
H 	0.390777319	-0.214951996	5.191254801
C 	-1.360739522	-0.853139975	4.297706083
H 	-1.414198740	-2.912685606	4.439586878
H 	2.552350049	2.795883479	-0.433880603
C 	-3.832929891	0.532603594	-2.629093857
C 	-3.999311668	-0.588420364	0.058726649
C 	-6.244284744	0.663593606	1.430113930
C 	-4.471025135	-3.455168501	-0.134257323
H 	-4.628650529	-4.350470181	1.720934114
H 	-5.602536470	0.214729537	-3.651375045
H 	-2.314839515	-0.331281854	-3.734954457
H 	-3.500200108	2.575085561	-2.581687150
H 	-7.965577368	0.448924539	0.302462713
H 	-5.933883403	2.691580365	1.705257574
H 	-6.618183329	-0.184674539	3.275343830
H 	-6.250170149	-3.804308830	-1.130563307
H 	-2.984598734	-4.425800411	-1.192009666
I 	6.444220063	-5.065786793	-2.980018610
I 	8.098487689	-9.778276705	-4.205492245
