26

H 	1.047634311	-2.958331249	-0.205859209
C 	-1.431545342	0.033136204	1.430652968
C 	0.807213972	-0.926784212	0.013066078
C 	2.775336734	0.619459342	-0.991786501
O 	4.710130951	-0.168546764	-2.093361162
H 	-1.287850755	2.101157539	1.528934832
H 	-2.771306245	-0.172409294	5.351056160
H 	0.535038666	-0.422801675	5.035055512
C 	-1.267474861	-0.970481756	4.183617532
H 	-1.396131964	-3.030433304	4.269183611
H 	2.539054745	2.691501293	-0.761973824
C 	-4.033337806	0.793794954	-2.540001846
C 	-4.057895324	-0.519791689	0.064186721
C 	-6.235755944	0.619670133	1.634188923
C 	-4.543393608	-3.369079747	-0.304177289
H 	-4.598606845	-4.392181537	1.490636078
H 	-5.845963471	0.522331855	-3.499146550
H 	-2.556861302	0.038648662	-3.774218811
H 	-3.727782694	2.833260756	-2.355492824
H 	-8.004500594	0.493400323	0.567236447
H 	-5.911560731	2.619926121	2.058889475
H 	-6.535379618	-0.375669345	3.418927530
H 	-6.376004785	-3.652629261	-1.221836010
H 	-3.117801154	-4.258011771	-1.507850944
I 	6.704720577	-5.215318021	-2.671524576
I 	8.798843054	-9.878762287	-3.153801795
