26

H 	0.554384203	-1.565481479	-0.108936002
C 	-0.757541172	0.017534924	0.757068947
C 	0.427159238	-0.490433084	0.006914271
C 	1.468644952	0.327803767	-0.524830815
O 	2.492493960	-0.089191106	-1.107759021
H 	-0.681501271	1.111884686	0.809077470
H 	-1.466512109	-0.091235069	2.831656974
H 	0.283130269	-0.223737011	2.664436633
C 	-0.670718812	-0.513556829	2.213875057
H 	-0.738801219	-1.603636243	2.259154676
H 	1.343609908	1.424281147	-0.403219183
C 	-2.134350451	0.420058200	-1.344111093
C 	-2.147345730	-0.275061916	0.033966150
C 	-3.299819938	0.327915313	0.864775536
C 	-2.404260357	-1.782840224	-0.160963689
H 	-2.433477944	-2.324242376	0.788810642
H 	-3.093550645	0.276406114	-1.851668612
H 	-1.353032732	0.020451991	-1.997230584
H 	-1.972657649	1.499297025	-1.246473123
H 	-4.235799299	0.261096207	0.300168601
H 	-3.128263220	1.386405198	1.089517390
H 	-3.458373959	-0.198795656	1.809218534
H 	-3.374036429	-1.932888165	-0.646567772
H 	-1.649869319	-2.253242793	-0.797920357
I 	3.547985335	-2.759827444	-1.413709924
I 	4.656147227	-5.227615874	-1.668920037
