12

C 	0.81484400	-0.20208600	0.88342800
C 	0.85578300	-0.33961700	-0.46517800
C 	-1.56257500	-0.45879100	-1.31992100
H 	0.83274500	-1.08008100	1.52886400
C 	0.73479500	1.10193600	1.56140200
H 	-1.72152000	-1.52259600	-1.19023300
H 	0.93161200	0.53685400	-1.10076800
H 	-1.35429100	-0.08020600	-2.31379700
H 	-1.95197800	0.22324500	-0.57546500
O 	0.62073300	2.18521200	1.00568700
H 	1.00558500	-1.31113000	-0.92464700
H 	0.78536900	1.04712000	2.67502700
