33

H 	1.607508320	2.263515250	0.532303040
C 	3.567492180	1.255714040	0.226491420
C 	2.086380340	1.320630040	0.287770340
C 	1.188283310	0.233704380	0.035903940
O 	-0.066434370	0.328294670	-0.002825540
H 	3.874917670	0.207412510	0.135261510
H 	5.243568630	1.750452230	1.549860400
H 	3.770701960	1.261477210	2.402682480
C 	4.152184240	1.827716230	1.545959190
H 	3.875264580	2.877990050	1.687928520
O 	1.777157500	-0.967191180	-0.174350570
C 	0.873224260	-2.079069740	-0.469840280
H 	0.303089240	-1.862898120	-1.378143520
H 	0.183572940	-2.232626270	0.365334570
H 	1.527492500	-2.940513380	-0.607494520
C 	3.508018800	1.279860060	-2.325830920
C 	4.120943740	1.979733140	-1.089728970
C 	5.656103850	1.819708630	-1.135022270
C 	3.750851910	3.478228480	-1.114902910
H 	4.169321630	4.017169230	-0.257364240
H 	3.933939630	1.699900750	-3.244937200
H 	2.421560900	1.419718780	-2.368058030
H 	3.716965920	0.202809210	-2.316334470
H 	6.036615090	2.204259670	-2.089737080
H 	5.950355650	0.764963110	-1.056769310
H 	6.154085920	2.377392170	-0.334783980
H 	4.155711250	3.941179730	-2.023321230
H 	2.665532810	3.628569460	-1.125854470
Ti	-1.560427700	1.903879750	0.047694680
Cl	-3.075427880	3.554537080	0.084943820
Cl	-2.995383610	0.226322740	-0.308643600
Cl	-0.798452630	2.259660490	2.142236980
Cl	-0.383520990	2.746929900	-1.693471730
