25

H 	1.930367056	0.916898703	-0.000866055
C 	0.000000000	0.000000000	0.000000000
C 	1.351426693	-0.000000000	0.000000000
C 	2.066877497	-1.254078568	-0.000000000
O 	3.302103593	-1.392977194	-0.000906651
H 	-0.510205935	-0.968471145	0.000072678
C 	-0.148169780	2.531701337	-0.010533247
C 	-0.913781862	1.194037673	0.002299356
C 	-1.799667815	1.102057493	1.278341685
C 	-1.824153792	1.091437966	-1.255189108
H 	-2.385448904	0.149614310	-1.264933045
H 	-0.858769374	3.365552593	-0.009862186
H 	0.479512701	2.624792518	-0.904044971
H 	0.492468554	2.634861003	0.872560761
H 	-2.519645678	1.928841124	1.283824369
H 	-1.188533062	1.169538705	2.185113061
H 	-2.360463773	0.160328100	1.307357934
H 	-2.544119315	1.918150926	-1.254369343
H 	-1.230999642	1.150628285	-2.174481770
H 	1.451569442	-2.173872616	0.001093821
Ti	5.074805264	-0.004235287	-0.005884096
Cl	6.795792067	1.421952296	-0.003502054
Cl	6.239100330	-1.898804391	-0.024875368
Cl	4.178796609	0.696369597	-1.948002607
Cl	4.186489955	0.685030053	1.945777600
