25

H 	  1.930367	  0.916899	 -0.000866
C 	  0.000000	  0.000000	  0.000000
C 	  1.351427	 -0.000000	  0.000000
C 	  2.066877	 -1.254079	 -0.000000
O 	  3.302104	 -1.392977	 -0.000907
H 	 -0.510206	 -0.968471	  0.000073
C 	 -0.148170	  2.531701	 -0.010533
C 	 -0.913782	  1.194038	  0.002299
C 	 -1.799668	  1.102057	  1.278342
C 	 -1.824154	  1.091438	 -1.255189
H 	 -2.385449	  0.149614	 -1.264933
H 	 -0.858769	  3.365553	 -0.009862
H 	  0.479513	  2.624793	 -0.904045
H 	  0.492469	  2.634861	  0.872561
H 	 -2.519646	  1.928841	  1.283824
H 	 -1.188533	  1.169539	  2.185113
H 	 -2.360464	  0.160328	  1.307358
H 	 -2.544119	  1.918151	 -1.254369
H 	 -1.231000	  1.150628	 -2.174482
H 	  1.451569	 -2.173873	  0.001094
Ti	  5.074805	 -0.004235	 -0.005884
Cl	  6.795792	  1.421952	 -0.003502
Cl	  6.239100	 -1.898804	 -0.024875
Cl	  4.178797	  0.696370	 -1.948003
Cl	  4.186490	  0.685030	  1.945778
