25

H 	2.475499570	0.884907580	-0.290348690
C 	4.189509560	-0.086347610	0.540057950
C 	2.879527760	0.017310680	0.221097210
C 	1.968139980	-1.048974170	0.569608260
O 	0.743926720	-1.070314830	0.348482540
H 	4.519322750	-0.994976670	1.054591860
C 	4.755800080	2.185742800	-0.436348190
C 	5.278500710	0.916996970	0.267000770
C 	6.349089090	0.218997220	-0.623188380
C 	5.926946610	1.295852600	1.631632950
H 	6.316971040	0.409624310	2.146758940
H 	5.584650040	2.881455580	-0.609666750
H 	4.004809010	2.700693530	0.174041290
H 	4.306928530	1.948831360	-1.408231940
H 	7.184019260	0.908162200	-0.798136920
H 	5.927133310	-0.066347370	-1.593613770
H 	6.745274520	-0.681495020	-0.138519400
H 	6.761618160	1.986095160	1.459413460
H 	5.200973770	1.788139210	2.288812740
H 	2.407805850	-1.925831450	1.082975600
Ti	-0.750730610	0.314970270	-0.610502630
Cl	-2.184424260	1.719174660	-1.597240280
Cl	-2.212614970	-1.255230650	-0.016286680
Cl	-0.060265230	1.743303060	0.987016970
Cl	0.534109990	-0.031510420	-2.429992330
