25

H 	2.467986582	0.892795821	-0.270546642
C 	4.186804234	-0.081555373	0.543901996
C 	2.875359765	0.024442928	0.235305382
C 	1.969638513	-1.044499242	0.584038172
O 	0.747381870	-1.071829517	0.359496609
H 	4.518644298	-0.990438820	1.055819480
C 	4.755613893	2.182640728	-0.446778821
C 	5.275263398	0.916967288	0.262943483
C 	6.339967339	0.210181211	-0.624973889
C 	5.924075214	1.300236971	1.624093205
H 	6.308289149	0.415520323	2.145471236
H 	5.585893261	2.874677606	-0.625611933
H 	4.007773461	2.703858633	0.161564053
H 	4.303944386	1.941492504	-1.415673350
H 	7.178987498	0.893050058	-0.803031931
H 	5.915005264	-0.075583148	-1.593488058
H 	6.730411598	-0.691263488	-0.138004658
H 	6.762265604	1.985070682	1.450182302
H 	5.199570264	1.799542328	2.276949295
H 	2.411854653	-1.918401107	1.099175733
Ti	-0.739592923	0.315242452	-0.607993646
Cl	-2.168797594	1.728651752	-1.585470209
Cl	-2.192147976	-1.284834496	-0.083423977
Cl	-0.087622182	1.717865692	1.026963608
Cl	0.575951673	0.015397215	-2.411492862
