25

H 	-0.000198842	0.302447024	-1.775763274
C 	0.165745487	-1.252702579	-0.317395037
C 	0.632442977	-0.255654070	-1.089340596
C 	2.023786813	0.193095894	-0.970991437
O 	2.482926754	1.188207138	-1.520998201
H 	0.875281246	-1.741024153	0.358183756
C 	-1.232715399	-3.298791650	-0.450859961
C 	-1.250078070	-1.764391327	-0.214357083
C 	-2.201600621	-1.090962785	-1.222719425
C 	-1.737666332	-1.478116540	1.234820542
H 	-1.760936607	-0.400850445	1.430886257
H 	-2.240374519	-3.710647286	-0.316761228
H 	-0.562239666	-3.800649116	0.257321496
H 	-0.896512898	-3.534458348	-1.467207096
H 	-3.212671650	-1.499370234	-1.111698903
H 	-1.877254595	-1.267311181	-2.254950165
H 	-2.255816393	-0.009127070	-1.058949862
H 	-2.748665759	-1.879960527	1.373950388
H 	-1.077602757	-1.946465480	1.974316679
H 	2.661922137	-0.432716833	-0.300016691
Ti	0.612500427	2.892393306	1.672342443
Cl	-0.967589047	2.607204886	0.170524415
Cl	1.229654720	0.935754487	2.471025250
Cl	-0.204474769	4.099052136	3.318613745
Cl	2.327170135	3.923112145	0.793700408
