29

H 	2.218530728	-0.319444334	-0.000518163
C 	0.000000000	0.000000000	0.000000000
C 	1.256042934	-0.818974736	0.000000000
C 	1.299538303	-2.261166155	0.000000000
O 	2.353042743	-2.924118879	-0.285736507
H 	-0.654410798	-0.389607285	-0.796312031
H 	-0.620912443	2.063495416	-0.348853517
H 	0.819244441	1.568186618	-1.273595884
C 	0.305926625	1.482390624	-0.309847506
H 	0.948630125	1.913929761	0.465738820
N 	0.173450015	-2.964011920	0.291020431
H 	0.243659960	-3.975571386	0.310723313
H 	-0.621430655	-2.519353326	0.737179794
C 	-0.118665918	0.029762396	2.551994609
C 	-0.824762870	-0.098961633	3.750567045
C 	-2.188527823	-0.415367414	3.746734965
C 	-2.813055780	-0.595864754	2.517026984
C 	-2.134318469	-0.476007546	1.305476976
C 	-0.768911828	-0.153130721	1.319405353
H 	0.941097210	0.271301134	2.571894188
H 	-0.312531783	0.045030736	4.698825702
H 	-2.757439989	-0.520964092	4.666074817
F 	-4.145784050	-0.905372807	2.489411384
H 	-2.673583448	-0.618416588	0.371726783
Sn	4.153640777	-2.251555377	-1.546437358
Cl	4.810854204	-1.051347514	0.412093310
Cl	2.481962289	-1.204868419	-2.927412803
Cl	6.018499114	-1.604933224	-2.907613191
Cl	4.476414694	-4.591300635	-1.667319854
