25

H 	0.61055600	-2.29541100	0.78034300
C 	-0.55377100	-0.41907100	0.96391400
C 	0.26824000	-1.46521900	0.15715700
C 	1.43138400	-0.87876200	-0.57506700
O 	2.56760600	-1.33957700	-0.52608600
H 	-0.78420200	0.40253900	0.27434700
H 	-0.38420800	-1.88006500	-0.62737100
H 	0.57702400	-0.59708500	2.83810400
C 	0.25905300	0.17321600	2.12901900
H 	1.15746100	0.68386200	1.76788200
H 	-0.34236000	0.90384900	2.67719900
C 	-4.38784100	-2.05321600	2.19153300
C 	-4.32240900	-1.01549700	1.26286700
C 	-3.08473700	-0.49910600	0.87570800
C 	-1.88979200	-1.00303900	1.40590100
C 	-1.97216700	-2.04568900	2.34072700
C 	-3.20632800	-2.56559600	2.72933600
H 	-5.23482000	-0.60385500	0.83743600
H 	-3.05028600	0.31207100	0.15090000
H 	-1.06871100	-2.46198300	2.77903400
H 	-3.24419800	-3.37412600	3.45593100
H 	-5.34986600	-2.45859600	2.49555800
H 	1.22495900	0.00734000	-1.20551700
Sn	4.53303600	-0.38417300	-1.83929200
Cl	3.13698400	-0.30597700	-3.83741700
