28

H 	2.012541547	0.955271343	0.062000384
C 	0.000000000	0.000000000	0.000000000
C 	1.495728470	0.000000000	0.000000000
C 	2.320166746	-1.167081909	0.000000000
O 	3.580694563	-1.075852585	0.155823921
H 	-0.340441825	-0.577919353	-0.876852226
H 	-1.662642512	1.406341311	-0.140432023
H 	-0.206963956	1.922114076	-1.025482162
C 	-0.568680753	1.432187447	-0.113640053
H 	-0.261266846	2.032908364	0.749437404
C 	1.735815774	-2.548370458	-0.180581708
H 	1.303286573	-2.882688326	0.771475639
H 	2.528031242	-3.240766944	-0.473977865
H 	0.929083703	-2.557425757	-0.921249754
C 	-1.565198727	-2.034425137	3.504659546
C 	-0.507562829	-1.127399073	3.632700196
C 	0.002261584	-0.476585801	2.505582085
C 	-0.543740471	-0.729044324	1.235325918
C 	-1.600578406	-1.642269878	1.113023072
C 	-2.113502566	-2.288449825	2.241418261
H 	-0.074566787	-0.926705449	4.610106955
H 	0.831393693	0.219522746	2.612909897
H 	-2.023652349	-1.848372776	0.130929537
H 	-2.937491230	-2.990672455	2.134972611
H 	-1.960323830	-2.541092590	4.382238761
Zn	4.672895928	0.510553075	0.925581786
Cl	3.425095210	1.386171677	2.481648988
Cl	6.550051544	0.677460957	-0.092530155
