28

H 	1.478767330	1.976028440	1.284883860
C 	3.525533860	1.516376560	0.533933920
C 	2.042849870	1.327174150	0.618403490
C 	1.278979110	0.398405250	-0.154510970
O 	0.004917590	0.417798940	-0.126564280
H 	4.006265490	0.546136430	0.751141350
H 	5.109061780	2.659830450	1.509975750
H 	3.758970820	2.231863460	2.589637460
C 	4.021644650	2.548368300	1.572889370
H 	3.564921130	3.526487790	1.384062270
C 	1.945187150	-0.637939190	-1.029150520
H 	2.287697110	-0.161192970	-1.956833890
H 	1.225486030	-1.421979950	-1.275128490
H 	2.827818800	-1.071365200	-0.545862440
C 	4.742879220	2.649464420	-3.480550040
C 	3.656234310	3.285184320	-2.868865560
C 	3.257809590	2.915341420	-1.580718870
C 	3.947555490	1.903107050	-0.889611580
C 	5.032741070	1.267057920	-1.509483750
C 	5.432731930	1.639856650	-2.796360180
H 	3.114153170	4.068279310	-3.394423030
H 	2.404773290	3.406064720	-1.116335640
H 	5.567575130	0.477968720	-0.982856320
H 	6.280326940	1.143574350	-3.264564550
H 	5.051293150	2.937101800	-4.483274410
Zn	-1.226845580	1.955848220	0.518199250
Cl	-0.204098390	3.811186080	-0.001804080
Cl	-2.993780670	1.142798350	1.415971440
