27

H 	0.124487420	-1.914831950	-0.717305150
C 	-1.022652140	-0.104484230	-0.577850430
C 	0.111337020	-0.825194950	-0.702168580
C 	1.402677860	-0.143800450	-0.778763670
O 	2.501172040	-0.699054850	-0.810427980
H 	-0.915465410	0.983814130	-0.564048130
H 	-0.371081310	-0.644874780	2.781905170
H 	-1.210192380	1.036702590	2.800050760
H 	0.560330150	0.873803240	2.205472290
C 	-0.354289850	0.415415420	2.562638900
H 	1.333401900	0.971309130	-0.796482010
C 	-2.850102230	-1.249821540	-1.837771410
C 	-2.440755170	-0.634114360	-0.466660080
C 	-3.402091890	0.524617940	-0.113955400
C 	-2.543361430	-1.729507370	0.626627140
H 	-2.317861780	-1.313208030	1.613079460
H 	-3.879613010	-1.624928350	-1.780003610
H 	-2.190654560	-2.082341970	-2.106755090
H 	-2.801279240	-0.501572170	-2.638036940
H 	-4.440125400	0.170540280	-0.112053500
H 	-3.324666190	1.343933970	-0.839346360
H 	-3.181098250	0.920908810	0.884672680
H 	-3.562350010	-2.135543750	0.648483750
H 	-1.854218640	-2.559148940	0.434948200
Sn	5.411570750	0.601592810	0.119186960
Cl	7.323818120	0.326663630	1.621592390
Cl	5.585532250	3.005521920	-0.280223140
