30

H 	2.017398041	0.951665073	0.024830075
C 	0.000000000	0.000000000	0.000000000
C 	1.494598917	0.000000000	0.000000000
C 	2.311135969	-1.172721705	-0.000000000
O 	3.569888847	-1.082211758	0.137193390
H 	-0.339631473	-0.580302478	-0.872879462
H 	-1.670911957	1.394659000	-0.158313338
H 	-0.209539103	1.915869435	-1.028993161
C 	-0.577784908	1.428209638	-0.119148915
H 	-0.283121889	2.034290000	0.744817442
C 	1.722848565	-2.555733720	-0.142009476
H 	0.856058180	-2.570688455	-0.810202982
H 	1.383184431	-2.900524705	0.843944991
H 	2.494168050	-3.239787902	-0.503207371
C 	-0.001371503	-0.479897793	2.517959184
C 	-0.504225087	-1.134457171	3.644380840
C 	-1.555090644	-2.049477539	3.512264486
C 	-2.103051699	-2.311091778	2.251340672
C 	-1.579795800	-1.645565330	1.148626487
C 	-0.533518604	-0.722880269	1.239105248
H 	0.825246067	0.219065792	2.622570939
H 	-0.073626679	-0.933553832	4.621874980
H 	-1.949767362	-2.563206300	4.385358164
H 	-2.918612293	-3.015941728	2.114330906
F 	-2.116777307	-1.916015042	-0.089133589
Ti	5.046362576	0.435101353	0.597031610
Cl	6.457975846	2.105563920	1.089203439
Cl	3.723553033	0.786585645	2.415540300
Cl	6.508472317	-1.238623873	0.678171682
Cl	4.494547824	1.226453403	-1.444808259
