30

H 	2.000702405	0.954925096	0.067916636
C 	0.000000000	0.000000000	0.000000000
C 	1.483138470	0.000000000	0.000000000
C 	2.349866657	-1.145811700	-0.000000000
O 	3.597065207	-1.058796226	0.297622476
H 	-0.388392045	-1.003288798	-0.232192036
H 	-1.607632629	0.972638406	-1.130584438
H 	-0.137115106	0.678324936	-2.073716884
C 	-0.514818605	0.975675713	-1.089365030
H 	-0.175018662	1.997970530	-0.896709206
N 	1.875826759	-2.372200058	-0.320224783
H 	0.915789649	-2.513600558	-0.601755491
H 	2.510350573	-3.161996323	-0.290969324
C 	-0.016151956	-0.757245759	2.440994382
C 	-0.558647672	0.316182001	1.470101289
C 	-2.099133841	0.237303565	1.438723092
C 	-0.110909397	1.711050445	1.955589764
H 	-0.458164544	2.508111123	1.289039139
H 	-0.464280747	-0.622890815	3.432431846
H 	1.070250715	-0.682614342	2.558566151
H 	-0.268460621	-1.769876973	2.098378236
H 	-2.489967175	0.334693640	2.458788915
H 	-2.443730794	-0.726014185	1.039962546
H 	-2.544390681	1.037921415	0.839171522
H 	-0.538280470	1.903153287	2.947046491
H 	0.977604595	1.777347630	2.050742729
Al	4.391002223	0.321012222	1.277189791
F 	3.403508524	0.372817399	2.650925095
F 	4.165078490	1.697154018	0.321365359
F 	5.973210062	-0.169020459	1.513310894
