30

H 	1.572891930	2.091989320	0.841213040
C 	3.522593920	1.188079470	0.294673460
C 	2.047344350	1.187846150	0.464690860
C 	1.128578770	0.136167330	0.120796870
O 	-0.140569280	0.331397220	0.056913130
H 	3.899011780	0.164141720	0.142519650
H 	5.278351430	1.703981230	1.501844840
H 	3.881427930	1.169366110	2.451592380
C 	4.188015960	1.752337110	1.575886300
H 	3.895066390	2.793238230	1.748232470
N 	1.580802470	-1.112514290	-0.146295290
H 	2.563208990	-1.343533610	-0.085958240
H 	0.914087060	-1.830790330	-0.406426530
C 	3.332284980	1.214718110	-2.254031150
C 	3.930429010	1.972003420	-1.046838040
C 	5.468577750	1.981978680	-1.171407350
C 	3.389360850	3.419498830	-1.037740040
H 	3.749147560	3.984034710	-0.169816890
H 	3.654869590	1.688818640	-3.188650700
H 	2.237200240	1.231525490	-2.238828280
H 	3.671801530	0.169842720	-2.278433070
H 	5.751232890	2.395338760	-2.147698750
H 	5.886004430	0.968160120	-1.104203970
H 	5.942492750	2.602044030	-0.403049860
H 	3.738296230	3.941759930	-1.936919990
H 	2.294493870	3.442166380	-1.046655510
Al	-0.995105430	1.989012340	-0.146673020
F 	-0.190597330	2.602471660	-1.505707030
F 	-0.578172150	2.848877830	1.248914010
F 	-2.615618550	1.614174730	-0.336688480
