30

H 	1.558769349	2.103437943	0.788383810
C 	3.519554296	1.196764720	0.285819607
C 	2.046913694	1.187266791	0.461714936
C 	1.146167564	0.106606672	0.170283437
O 	-0.122928647	0.283176611	0.070920877
H 	3.896388540	0.177584432	0.110841245
H 	5.278193129	1.728752870	1.482860699
H 	3.914799072	1.117070247	2.434460419
C 	4.188542974	1.738857129	1.575116868
H 	3.865109569	2.762511180	1.787696680
N 	1.610215472	-1.151797998	-0.009614776
H 	2.590450868	-1.375671964	0.090104382
H 	0.949186047	-1.886807675	-0.233345340
C 	3.232046713	1.330385430	-2.250244370
C 	3.918497696	2.005340117	-1.040945658
C 	5.448876801	1.930344209	-1.221554205
C 	3.467714847	3.479141505	-0.960131728
H 	3.916085048	3.998766301	-0.106237220
H 	3.569201462	1.802135135	-3.180619456
H 	2.142606789	1.434107975	-2.205233067
H 	3.485964560	0.263385717	-2.309445735
H 	5.724597471	2.376942037	-2.184517494
H 	5.802529182	0.890792704	-1.222439551
H 	5.987076490	2.477100948	-0.440463401
H 	3.786280282	4.004949515	-1.868194488
H 	2.378430619	3.567278673	-0.896855932
Al	-0.974056610	1.911470861	-0.272588203
F 	-0.147631388	2.441408004	-1.651415330
F 	-0.593038858	2.873643756	1.064369879
F 	-2.589033110	1.523188193	-0.473472063
