8
C3H2F2O optimized with ADF in AMS.
C        0.29919457401800       0.43439452931829       0.00000000000000
C        0.97487089097891      -0.72071635666158       0.00000000000000
H        0.53894169244840      -1.71587250814647       0.00000000000000
C       -1.16034551999211       0.51236901094262       0.00000000000000
H        0.82528800882018       1.38386030588659       0.00000000000000
O       -1.83192089612130       1.49981366221483       0.00000000000000
F        2.31161358923300      -0.74172090048052       0.00000000000000
F       -1.75942331938507      -0.73280142307376       0.00000000000000
