66

C 	0.558720924	0.314527490	4.012257380
C 	1.800395501	-1.868580411	3.327023450
C 	4.500680700	-1.924753030	2.836529482
O 	5.737897433	-3.838726041	2.315270111
H 	10.271505741	-9.635324793	11.384802871
H 	1.741905606	1.966126807	4.374412602
H 	0.805491074	-3.654962761	3.115530839
H 	7.447109114	-12.956516038	-3.543608703
H 	8.408456257	-9.915958023	-2.520751031
H 	10.063592725	-7.181520957	9.119068113
H 	9.570579998	-12.630833022	-0.955820715
C 	0.091976164	2.227430331	-0.176667377
H 	-1.530003359	1.187846580	-0.875363093
H 	10.715785210	-10.309529790	8.148854942
H 	4.457632153	-4.859575369	8.770752527
H 	-0.187385753	4.194951642	0.328661054
H 	1.925312181	1.701422437	-0.923180326
N 	6.307696196	-10.259514957	2.224838723
C 	6.097870833	-11.197696250	4.671843419
N 	6.059311614	-9.281339953	6.481311949
C 	5.678732149	-11.782007637	-0.011212236
H 	6.059004912	-8.371963793	2.016959722
C 	6.784821844	-9.738464968	9.118764566
H 	6.548335527	-7.554798558	5.817694123
H 	5.404370126	-13.698034932	0.704791651
C 	9.617183120	-9.171417608	9.480875644
C 	7.907288511	-11.817930650	-1.877173827
H 	1.079315942	-14.096407661	0.187336336
H 	6.497799186	-11.764283442	9.406105965
C 	3.193361742	-10.907199367	-1.207941512
C 	3.017199885	-8.654193502	-2.598641101
C 	0.722298811	-7.874297616	-3.638439563
C 	-1.451721567	-9.335713232	-3.315763196
C 	-1.306093849	-11.579238134	-1.936611269
C 	0.993015873	-12.348639048	-0.893160590
H 	4.677733393	-7.476545982	-2.881865826
H 	0.634762104	-6.123625986	-4.717310437
H 	-3.238967636	-8.735304327	-4.139068435
H 	-2.985023103	-12.739548626	-1.673789955
C 	4.950103077	-8.336828153	10.997927046
C 	5.671437088	-8.990625318	13.749218296
H 	4.242827570	-8.252886689	15.054252575
H 	7.484770656	-8.166972899	14.302924983
H 	5.782910426	-11.038248813	14.039197053
C 	2.225418151	-9.263423573	10.515971258
H 	2.068597867	-11.308171434	10.798344358
H 	0.906399085	-8.341788004	11.819489126
H 	1.620285232	-8.852989402	8.584438193
C 	5.034101706	-5.436862493	10.670628182
H 	6.915909368	-4.659376687	11.037168286
H 	3.732089136	-4.532157131	12.003525679
C 	-3.241680962	3.092150241	5.033569408
C 	-2.047273291	0.437170205	5.270814809
C 	-1.556623912	-0.068449546	8.130551527
C 	-3.919025342	-1.555955308	4.262636284
H 	-3.254693446	-3.487286569	4.573528206
H 	-4.942568342	3.201828565	6.206472298
H 	-3.797796936	3.527010501	3.093432495
H 	-1.946246756	4.573912520	5.677574465
H 	-3.335878575	0.079953519	9.178900168
H 	-0.238285318	1.313300584	8.929105473
H 	-0.774674063	-1.954557601	8.439944839
H 	-5.731902560	-1.369275235	5.242448017
H 	-4.274877495	-1.316889344	2.240119445
H 	5.482113043	-0.064259362	2.987414476
O 	5.966106901	-13.470834501	5.187077057
