66

C 	0.558720924	0.314527491	4.012257373
C 	1.800395505	-1.868580406	3.327023454
C 	4.500680702	-1.924753033	2.836529492
O 	5.737897438	-3.838726034	2.315270115
H 	10.271505739	-9.635324796	11.384802883
H 	1.741905598	1.966126804	4.374412594
H 	0.805491076	-3.654962754	3.115530845
H 	7.447109111	-12.956516042	-3.543608704
H 	8.408456262	-9.915958019	-2.520751028
H 	10.063592733	-7.181520955	9.119068116
H 	9.570579992	-12.630833018	-0.955820719
C 	0.091976170	2.227430340	-0.176667377
H 	-1.530003350	1.187846574	-0.875363091
H 	10.715785217	-10.309529799	8.148854950
H 	4.457632152	-4.859575367	8.770752524
H 	-0.187385761	4.194951649	0.328661060
H 	1.925312187	1.701422439	-0.923180321
N 	6.307696205	-10.259514956	2.224838715
C 	6.097870835	-11.197696252	4.671843428
N 	6.059311618	-9.281339956	6.481311957
C 	5.678732156	-11.782007643	-0.011212237
H 	6.059004913	-8.371963799	2.016959729
C 	6.784821844	-9.738464975	9.118764573
H 	6.548335530	-7.554798560	5.817694119
H 	5.404370134	-13.698034925	0.704791650
C 	9.617183129	-9.171417615	9.480875643
C 	7.907288510	-11.817930649	-1.877173836
H 	1.079315951	-14.096407663	0.187336334
H 	6.497799180	-11.764283441	9.406105967
C 	3.193361745	-10.907199376	-1.207941515
C 	3.017199893	-8.654193502	-2.598641093
C 	0.722298804	-7.874297613	-3.638439559
C 	-1.451721563	-9.335713228	-3.315763187
C 	-1.306093850	-11.579238138	-1.936611265
C 	0.993015881	-12.348639047	-0.893160589
H 	4.677733390	-7.476545993	-2.881865835
H 	0.634762107	-6.123625979	-4.717310439
H 	-3.238967636	-8.735304323	-4.139068437
H 	-2.985023109	-12.739548637	-1.673789957
C 	4.950103073	-8.336828149	10.997927056
C 	5.671437098	-8.990625326	13.749218306
H 	4.242827566	-8.252886695	15.054252582
H 	7.484770665	-8.166972905	14.302924983
H 	5.782910433	-11.038248810	14.039197058
C 	2.225418153	-9.263423583	10.515971253
H 	2.068597860	-11.308171439	10.798344360
H 	0.906399093	-8.341788007	11.819489124
H 	1.620285231	-8.852989395	8.584438198
C 	5.034101713	-5.436862498	10.670628177
H 	6.915909378	-4.659376695	11.037168287
H 	3.732089139	-4.532157135	12.003525681
C 	-3.241680957	3.092150240	5.033569403
C 	-2.047273293	0.437170205	5.270814814
C 	-1.556623916	-0.068449553	8.130551525
C 	-3.919025351	-1.555955300	4.262636280
H 	-3.254693438	-3.487286564	4.573528198
H 	-4.942568342	3.201828569	6.206472306
H 	-3.797796934	3.527010499	3.093432499
H 	-1.946246761	4.573912519	5.677574463
H 	-3.335878571	0.079953521	9.178900169
H 	-0.238285320	1.313300580	8.929105473
H 	-0.774674054	-1.954557606	8.439944837
H 	-5.731902556	-1.369275242	5.242448021
H 	-4.274877489	-1.316889336	2.240119444
H 	5.482113052	-0.064259356	2.987414480
O 	5.966106908	-13.470834505	5.187077063
