28

H 	1.930377304	0.930208841	-0.003673892
C 	0.000000000	0.000000000	0.000000000
C 	1.363739957	0.000000000	0.000000000
C 	2.200833092	-1.157566070	0.000000000
O 	3.441727196	-1.154850391	0.068200566
H 	-0.517990140	-0.957456103	0.037882954
H 	0.304104213	0.451880875	-2.921080556
H 	-1.293606445	-0.519715440	-2.821883087
H 	0.342413744	-1.384757815	-2.568168115
C 	-0.219708662	-0.467392694	-2.689911858
Br	1.375269633	-2.934551343	-0.122336277
C 	-1.042643764	1.262576799	1.800468264
C 	-0.852023082	1.221975576	0.246086016
C 	-2.242809011	1.065110700	-0.412338826
C 	-0.185547566	2.532211099	-0.223080491
H 	0.020154175	2.506018007	-1.298901022
H 	-1.688401384	2.111314087	2.054682444
H 	-0.081210688	1.385367892	2.308709167
H 	-1.517927616	0.346469037	2.169365451
H 	-2.910971867	1.859634618	-0.061816755
H 	-2.698221065	0.100903329	-0.156012277
H 	-2.175173907	1.136668097	-1.501750566
H 	-0.856273679	3.375684858	-0.025692633
H 	0.755613747	2.728065304	0.300414299
Al	4.727106068	0.226934478	0.385886138
F 	4.705440866	0.313839559	2.059273525
F 	3.999107066	1.554886547	-0.363580108
F 	6.106862933	-0.355229072	-0.351267871
