27

H 	-1.699597786	-1.268359531	0.001698890
C 	0.000000000	0.000000000	0.000000000
C 	-1.325545778	-0.251163274	-0.000000000
C 	-2.335013616	0.797415696	0.000000000
O 	-3.568812175	0.536982050	0.015163151
H 	0.347006961	1.035413878	-0.001839917
C 	0.594740541	-2.473022323	-0.011440674
C 	1.108702016	-1.020248972	0.008728220
C 	1.954096309	-0.776762565	1.292284759
C 	1.997821566	-0.756927813	-1.240120973
H 	2.384131011	0.269575729	-1.245428302
H 	1.444073184	-3.165154434	-0.006823351
H 	-0.000676276	-2.675122211	-0.908811884
H 	-0.023795577	-2.692528128	0.865873398
H 	2.809930025	-1.461870567	1.303603227
H 	1.356448998	-0.955098052	2.193092040
H 	2.338410153	0.249791481	1.328382482
H 	2.852921202	-1.442912631	-1.234300535
H 	1.431943117	-0.918943593	-2.164347683
C 	-1.964522978	2.261791441	-0.024169259
H 	-2.876136869	2.861925638	-0.022183749
H 	-1.374037573	2.493711472	-0.918513709
H 	-1.355335502	2.518341478	0.850716739
B 	-4.279746126	-1.019626831	0.054262822
F 	-3.792861235	-1.580097236	1.220487503
F 	-3.819650103	-1.629759117	-1.097960542
F 	-5.609376047	-0.716674757	0.062751497
