27

H 	 -1.699598	 -1.268360	  0.001699
C 	  0.000000	  0.000000	  0.000000
C 	 -1.325546	 -0.251163	 -0.000000
C 	 -2.335014	  0.797416	 -0.000000
O 	 -3.568812	  0.536982	  0.015163
H 	  0.347007	  1.035414	 -0.001840
C 	  0.594741	 -2.473022	 -0.011441
C 	  1.108702	 -1.020249	  0.008728
C 	  1.954096	 -0.776763	  1.292285
C 	  1.997822	 -0.756928	 -1.240121
H 	  2.384131	  0.269576	 -1.245428
H 	  1.444073	 -3.165154	 -0.006823
H 	 -0.000676	 -2.675122	 -0.908812
H 	 -0.023796	 -2.692528	  0.865873
H 	  2.809930	 -1.461871	  1.303603
H 	  1.356449	 -0.955098	  2.193092
H 	  2.338410	  0.249791	  1.328382
H 	  2.852921	 -1.442913	 -1.234301
H 	  1.431943	 -0.918944	 -2.164348
C 	 -1.964523	  2.261791	 -0.024169
H 	 -2.876137	  2.861926	 -0.022184
H 	 -1.374038	  2.493711	 -0.918514
H 	 -1.355335	  2.518341	  0.850717
B 	 -4.279746	 -1.019627	  0.054263
F 	 -3.792861	 -1.580097	  1.220488
F 	 -3.819650	 -1.629759	 -1.097961
F 	 -5.609376	 -0.716675	  0.062751
