27

H 	2.416870903	0.763919754	-0.365620749
C 	4.184125939	-0.207518942	0.290495034
C 	2.876027277	-0.160958293	-0.036406474
C 	1.998308520	-1.320537358	0.023001860
O 	0.781674612	-1.254872523	-0.302274258
H 	4.618791178	-1.153914111	0.618978561
C 	4.521365653	2.266380689	-0.195073294
C 	5.162681481	0.937455097	0.249656255
C 	6.298799103	0.542686152	-0.737708298
C 	5.763216231	1.091883627	1.676192534
H 	6.234309856	0.160643345	2.013586976
H 	5.279070111	3.057751621	-0.202152832
H 	3.719787496	2.572448847	0.486421666
H 	4.102071505	2.192065464	-1.204587719
H 	7.065006831	1.326759016	-0.748095407
H 	5.909053446	0.426557474	-1.755083383
H 	6.777444719	-0.398083721	-0.439943613
H 	6.527370189	1.877913185	1.670652011
H 	4.987933737	1.369632014	2.399003320
C 	2.491595887	-2.671971278	0.484019995
H 	1.666279316	-3.385321337	0.449536174
H 	2.881003094	-2.609980642	1.507167637
H 	3.306568253	-3.023501432	-0.159873945
B 	-0.046805631	0.131931131	-0.868298275
F 	0.638332275	0.485210381	-2.015923563
F 	0.076789036	1.043520492	0.163834289
F 	-1.303973906	-0.358080732	-1.066247882
