22

C 	  0.015318	  1.389240	  0.829755
C 	  0.977998	  0.351647	  1.295489
H 	  0.529021	 -0.636500	  1.159062
C 	 -1.231272	  1.231265	  0.150074
H 	  0.299263	  2.435444	  0.963281
O 	 -1.972536	  2.099364	 -0.245096
C 	  1.326078	  0.528526	  2.790756
H 	  2.113603	 -0.177370	  3.076944
H 	  0.439711	  0.334146	  3.403629
H 	  1.673004	  1.543223	  3.014559
I 	 -1.885017	 -0.952126	 -0.179215
C 	  4.320594	  0.616706	 -1.480261
C 	  3.225193	 -0.210393	 -1.755344
C 	  2.159794	 -0.284325	 -0.855791
C 	  2.182745	  0.450837	  0.342624
C 	  3.277801	  1.290151	  0.603684
C 	  4.342460	  1.367103	 -0.299194
H 	  3.199499	 -0.796557	 -2.671395
H 	  1.303191	 -0.917257	 -1.076245
H 	  3.313108	  1.875328	  1.518693
H 	  5.191250	  2.010514	 -0.077725
H 	  5.149683	  0.677946	 -2.181646
