22

C 	0.042909698	0.349258779	0.181969982
C 	0.954872023	-0.789892235	0.492968333
H 	0.438232930	-1.730135965	0.275257202
C 	-1.150180927	0.366453094	-0.605490474
H 	0.324313126	1.341232477	0.542798983
O 	-1.865942448	1.314200571	-0.835608857
C 	1.390071102	-0.787852759	1.978309841
H 	2.102291423	-1.601642813	2.156024390
H 	0.521632666	-0.931188299	2.631384854
H 	1.874305328	0.155454269	2.255690962
I 	-1.743289183	-1.659040183	-1.511405988
C 	4.309078052	-0.526448692	-2.269644223
C 	3.377662169	-1.565606524	-2.381713040
C 	2.295960789	-1.638590082	-1.499014660
C 	2.145261034	-0.687421066	-0.478197586
C 	3.078543957	0.359328201	-0.378245002
C 	4.155521094	0.436976861	-1.265398335
H 	3.491089170	-2.319048906	-3.158775488
H 	1.564478965	-2.437147106	-1.597661635
H 	2.971032904	1.114476175	0.397820015
H 	4.872604489	1.250484897	-1.175081630
H 	5.146187921	-0.465721745	-2.961990283
