26

H 	  1.911392	  0.932395	  0.001522
C 	  0.000000	  0.000000	  0.000000
C 	  1.358503	  0.000000	 -0.000000
C 	  2.170579	 -1.199578	  0.000000
O 	  3.424681	 -1.129837	  0.001466
H 	 -0.522614	 -0.957034	  0.001913
C 	 -2.623597	  3.368688	  0.008997
C 	 -1.236026	  3.575790	 -0.015718
C 	 -0.364155	  2.491941	 -0.020398
C 	 -0.864466	  1.168661	 -0.000851
C 	 -2.264773	  0.978125	  0.021493
C 	 -3.135872	  2.066764	  0.027171
H 	 -0.838340	  4.587749	 -0.031117
H 	  0.707345	  2.669098	 -0.039929
H 	 -2.661536	 -0.035402	  0.035495
H 	 -4.210679	  1.902607	  0.045069
H 	 -3.299796	  4.220566	  0.013279
C 	  1.550386	 -2.581167	 -0.004685
H 	  2.345819	 -3.328447	  0.013991
H 	  0.937951	 -2.723959	 -0.903643
H 	  0.899661	 -2.718020	  0.867503
Ti	  4.995638	  0.397294	 -0.005659
Cl	  6.522205	  2.040701	 -0.014193
Cl	  4.055056	  0.986670	 -1.971780
Cl	  4.065977	  0.995317	  1.963325
Cl	  6.407607	 -1.324218	 -0.002666
