26

H 	2.464759140	0.778067920	0.336680840
C 	4.303528710	-0.113675090	-0.264786390
C 	2.962983830	-0.108296590	-0.040450290
C 	2.100109490	-1.250828350	-0.268869700
O 	0.870721000	-1.195693750	-0.011597020
H 	4.765358230	-1.027467890	-0.640650410
C 	7.100793810	3.054383140	0.350981360
C 	5.740932170	3.274585010	0.620279390
C 	4.812278670	2.256388030	0.425417140
C 	5.226937710	0.988218870	-0.046942140
C 	6.600511300	0.784352440	-0.314802660
C 	7.528591550	1.806561270	-0.117043900
H 	5.409769480	4.245054070	0.983060360
H 	3.763104450	2.442584860	0.638121620
H 	6.930815480	-0.187140060	-0.679045250
H 	8.581798760	1.633052770	-0.326512900
H 	7.821292600	3.854632600	0.506093140
C 	2.639244050	-2.555790310	-0.819313390
H 	1.813465490	-3.259174830	-0.943443860
H 	3.380044050	-2.984422960	-0.132182170
H 	3.133984730	-2.396080020	-1.785288310
Ti	-0.583794740	0.213048870	0.820485160
Cl	-2.005417260	1.719376780	1.684442330
Cl	0.754810640	0.127140030	2.639864420
Cl	-0.008870590	1.475456890	-0.963467180
Cl	-2.055839220	-1.434337480	0.517775870
