23

H 	1.916663597	0.931421163	0.001010304
C 	0.000000000	0.000000000	0.000000000
C 	1.354939337	0.000000000	0.000000000
C 	2.185849046	-1.201605664	0.000000000
O 	3.430435888	-1.120192473	0.010424204
H 	-0.521324265	-0.957895263	-0.001153898
C 	-2.650387009	3.356446682	-0.009816476
C 	-1.264141622	3.572200593	0.007495183
C 	-0.384098714	2.493925555	0.012151634
C 	-0.873549897	1.167608304	-0.001033555
C 	-2.271447517	0.968363692	-0.016962197
C 	-3.151714654	2.050716885	-0.021242328
H 	-0.872721829	4.586785870	0.018243695
H 	0.686372544	2.679350035	0.026779294
H 	-2.661327114	-0.047962565	-0.026038315
H 	-4.225278812	1.877404797	-0.033953467
H 	-3.332704739	4.203436268	-0.013379553
C 	1.551636606	-2.584856089	-0.019924448
H 	2.340799214	-3.337873893	0.025184142
H 	0.968619965	-2.724157303	-0.939033309
H 	0.870792976	-2.715509295	0.829676305
I 	4.830766705	1.201769562	0.092658769
I 	6.321934842	3.564242309	0.188917312
