23

H 	  1.916664	  0.931421	  0.001010
C 	  0.000000	  0.000000	  0.000000
C 	  1.354939	 -0.000000	  0.000000
C 	  2.185849	 -1.201606	  0.000000
O 	  3.430436	 -1.120192	  0.010424
H 	 -0.521324	 -0.957895	 -0.001154
C 	 -2.650387	  3.356447	 -0.009816
C 	 -1.264142	  3.572201	  0.007495
C 	 -0.384099	  2.493926	  0.012152
C 	 -0.873550	  1.167608	 -0.001034
C 	 -2.271448	  0.968364	 -0.016962
C 	 -3.151715	  2.050717	 -0.021242
H 	 -0.872722	  4.586786	  0.018244
H 	  0.686373	  2.679350	  0.026779
H 	 -2.661327	 -0.047963	 -0.026038
H 	 -4.225279	  1.877405	 -0.033953
H 	 -3.332705	  4.203436	 -0.013380
C 	  1.551637	 -2.584856	 -0.019924
H 	  2.340799	 -3.337874	  0.025184
H 	  0.968620	 -2.724157	 -0.939033
H 	  0.870793	 -2.715509	  0.829676
I 	  4.830767	  1.201770	  0.092659
I 	  6.321935	  3.564242	  0.188917
