23

H 	2.441462324	0.501357346	0.592877280
C 	4.281092772	-0.229739688	-0.196047741
C 	2.976427108	-0.337525036	0.153366670
C 	2.168362115	-1.543094104	-0.013670177
O 	0.967683109	-1.561694522	0.323608827
H 	4.777019367	-1.096985126	-0.633410082
C 	6.858093725	3.160965822	0.194546962
C 	5.520046871	3.260606742	0.604703054
C 	4.664235053	2.169513106	0.485224732
C 	5.130268743	0.946664472	-0.049852439
C 	6.479272073	0.864031052	-0.459036535
C 	7.335225375	1.959125432	-0.338665310
H 	5.146992970	4.194892822	1.017799381
H 	3.630768405	2.264688025	0.806773087
H 	6.850380159	-0.071514617	-0.873814336
H 	8.371233597	1.876271510	-0.658916533
H 	7.521684754	4.017340792	0.290621912
C 	2.775225677	-2.810486942	-0.597995561
H 	1.998170038	-3.573483009	-0.674609883
H 	3.583651547	-3.178625931	0.046205982
H 	3.200724458	-2.619161095	-1.590358880
I 	-0.387445197	0.554070569	1.346527185
I 	-1.833554719	2.705334678	2.392928438
