30

H 	1.529838480	2.160908220	-0.819901750
C 	3.434551640	1.175454190	-0.545801490
C 	2.059604980	1.248518430	-0.562105260
C 	1.199945150	0.167184320	-0.171868870
O 	-0.066182490	0.232902040	-0.152627780
H 	3.892058080	0.203177470	-0.374808100
H 	3.240809370	2.367638110	1.970140320
H 	4.908837570	1.549362270	1.818610850
H 	3.391753500	0.519701570	2.177830080
C 	3.829595660	1.463147480	1.870960210
O 	1.794657160	-0.977625110	0.207709880
C 	0.910385480	-2.081326300	0.601201470
H 	0.290178030	-2.380525520	-0.248300160
H 	0.273554840	-1.771307990	1.433958180
H 	1.587102760	-2.883602590	0.896676490
C 	5.716267740	1.935633750	-1.144508650
C 	6.624533170	2.895369060	-1.589664480
C 	6.142857760	4.165443920	-1.904283050
C 	4.790999100	4.497965300	-1.792708530
C 	3.895894350	3.526538950	-1.349683960
C 	4.339803580	2.227187910	-1.015370830
H 	6.075231390	0.939844630	-0.890031180
H 	7.683694450	2.675329900	-1.692766180
F 	7.024928650	5.117705880	-2.335304350
H 	4.457689670	5.499636650	-2.050468320
H 	2.844102060	3.785354530	-1.260878310
Al	-1.370636940	1.538556790	-0.478348980
F 	-2.205677010	0.920228040	-1.796573350
F 	-0.482772000	2.943491930	-0.815236880
F 	-2.205022230	1.589345370	0.977736610
