24

H 	  1.930452	  0.922891	 -0.002869
C 	  0.000000	  0.000000	  0.000000
C 	  1.350033	  0.000000	  0.000000
C 	  2.184032	 -1.180278	  0.000000
O 	  3.421886	 -1.159319	  0.016717
H 	 -0.519372	 -0.960561	 -0.004150
C 	 -1.777320	  1.126584	 -1.276152
C 	 -0.892351	  1.207581	  0.003488
C 	 -0.115706	  2.538190	  0.026095
C 	 -1.808762	  1.101683	  1.258202
H 	 -1.218754	  1.149228	  2.180057
H 	 -2.487754	  1.961372	 -1.277213
H 	 -2.347142	  0.190671	 -1.309418
H 	 -1.164155	  1.192776	 -2.181517
H 	 -0.820253	  3.376998	  0.027789
H 	  0.530269	  2.642438	 -0.852660
H 	  0.510412	  2.622395	  0.921393
H 	 -2.519486	  1.936194	  1.259066
H 	 -2.378990	  0.165384	  1.258488
I 	  1.290426	 -3.166065	 -0.030839
Al	  4.809970	  0.163194	  0.140446
F 	  3.956559	  1.592578	 -0.143582
F 	  5.848153	 -0.303411	 -1.081290
F 	  5.311313	 -0.041219	  1.722805
