20

H 	0.218572540	-1.707696990	0.658705400
C 	-0.857192570	-0.150564380	-0.316657260
C 	0.252486460	-0.743018800	0.155278190
C 	1.617963690	-0.208240360	0.079215100
H 	-0.749657450	0.817125480	-0.808055140
O 	2.609763370	-0.724214670	0.511135060
Cl	1.774295830	1.446958200	-0.789530020
C 	-3.109339620	0.366283580	0.562397370
C 	-2.272198080	-0.675006070	-0.234616180
C 	-2.373321840	-2.053712970	0.447862380
C 	-2.827874630	-0.765495040	-1.685497200
H 	-2.259224750	-1.490704620	-2.279157200
H 	-4.160392190	0.052695310	0.591308540
H 	-3.060647860	1.356817350	0.094520150
H 	-2.745972740	0.454756630	1.592980560
H 	-3.420250390	-2.378222710	0.476087760
H 	-2.006716710	-2.018327850	1.480846090
H 	-1.800548770	-2.813882820	-0.096536930
H 	-3.877104130	-1.085166310	-1.660911080
H 	-2.778034500	0.206932440	-2.189758820
