22

C 	0.734105540	-0.278741480	1.068555320
C 	1.216855170	-0.201328850	-0.215196460
C 	-0.787549170	-0.299292520	-1.592940690
H 	0.743808740	-1.218875650	1.616741760
C 	0.154373140	0.799958510	1.837909470
H 	-1.150872340	-1.245150720	-1.208195320
H 	1.308053640	0.788526150	-0.654903710
H 	-0.283551060	-0.295488050	-2.552741540
H 	-1.224731250	0.621279380	-1.224224430
O 	-0.255641560	0.758929130	2.967845390
Cl	0.037603580	2.447463910	0.908912960
C 	3.306908650	-3.295037620	-2.335280600
C 	3.360028170	-1.965313310	-2.769502970
C 	2.669168320	-0.974246380	-2.069866120
C 	1.918219150	-1.287253050	-0.917023630
C 	1.873061810	-2.632226970	-0.493415220
C 	2.560321740	-3.622826770	-1.194984960
H 	3.936547570	-1.701807220	-3.654051600
H 	2.708203760	0.058753130	-2.412293930
H 	1.289544290	-2.908844230	0.381379690
H 	2.511690490	-4.655678670	-0.855538240
H 	3.839306230	-4.071285940	-2.880878800
