25

H 	1.870464675	-1.008597960	0.049160624
C 	0.000000000	0.000000000	0.000000000
C 	0.790934905	-1.095681606	-0.000000000
C 	0.311408995	-2.479051322	-0.000000000
O 	1.016112336	-3.446499800	0.410326059
H 	-1.084077474	-0.128925354	0.009470785
C 	-0.525505015	2.413998342	0.044747264
C 	-0.160413827	3.759030214	0.080309929
C 	1.195743586	4.071852017	0.115272990
C 	2.190042581	3.091454357	0.118202519
C 	1.809345744	1.754561817	0.080712906
C 	0.444084792	1.387713349	0.041401386
H 	-1.580845475	2.149845178	0.021451111
H 	-0.900950535	4.553749275	0.083658663
F 	1.568385336	5.383719567	0.150761377
H 	3.235672589	3.383996510	0.152711261
H 	2.581287234	0.990510188	0.089284468
N 	-0.935905339	-2.756560776	-0.457157689
H 	-1.237241518	-3.724526922	-0.458716276
H 	-1.468589983	-2.079023188	-0.985142488
Sn	2.991787573	-3.531955431	1.663982756
Cl	1.834773623	-2.035296997	3.115217971
Cl	3.998139365	-2.576741186	-0.282612366
Cl	5.002069125	-3.695954949	2.958629387
Cl	2.426679963	-5.827674196	1.651630582
