25

H 	2.433697440	0.847865970	0.497801330
C 	4.284182180	-0.189405760	0.328795530
C 	2.941827230	-0.110111760	0.481617420
C 	2.040597610	-1.260613430	0.596445280
O 	0.796156270	-1.185951560	0.377148180
H 	4.748063550	-1.175718300	0.256363760
C 	6.594942920	0.646581140	0.040386780
C 	7.538314890	1.670014650	-0.059222130
C 	7.092507100	2.987814610	0.007714190
C 	5.741283430	3.310607270	0.160450590
C 	4.812976020	2.278314430	0.259129350
C 	5.219330070	0.924313530	0.207754030
H 	6.928073240	-0.388736520	-0.009160020
H 	8.597065060	1.460380330	-0.185877000
F 	8.006605160	4.001173990	-0.081923080
H 	5.436028090	4.352883350	0.199815030
H 	3.762402720	2.528866550	0.378308770
N 	2.544164860	-2.471076140	0.955348530
H 	1.893964720	-3.242858830	1.058430710
H 	3.466351070	-2.558568150	1.361233440
Sn	-0.583715940	0.434696630	-0.601825170
Cl	1.036877150	0.391948750	-2.351199020
Cl	-0.031730580	1.727350690	1.332952930
Cl	-2.058391660	2.034765360	-1.607676490
Cl	-2.132512580	-1.342001450	-0.392169000
