26

H 	0.319380396	-3.442113871	0.152353798
C 	-1.719452774	-0.273157445	1.911680676
C 	0.404162839	-1.390639049	0.446004837
C 	2.465760886	-0.063781973	-0.625459873
O 	4.078667500	-1.389740574	-2.011815249
H 	-1.419149315	1.758875671	2.066794867
H 	-3.632610335	-0.632337865	5.517919983
H 	-0.289522001	-0.766621591	5.708106519
C 	-1.928676386	-1.360970667	4.600942162
H 	-2.004015968	-3.426035342	4.629531045
C 	-8.193909582	-1.330229367	-3.035823386
C 	-6.674516078	0.817156144	-3.234824440
C 	-4.587449565	1.113134721	-1.659979269
C 	-4.015410224	-0.715296296	0.187495645
C 	-5.534540251	-2.888245891	0.343357039
C 	-7.614973082	-3.180617674	-1.240746486
H 	-7.108045905	2.265179902	-4.626566678
H 	-3.395926023	2.774212478	-1.839195351
H 	-5.134028836	-4.341755585	1.734885574
H 	-8.796722240	-4.853159955	-1.069077662
H 	-9.817272929	-1.567780553	-4.273048356
H 	3.535380342	-3.145661885	-2.181511642
B 	3.109586773	3.046237879	-0.256586301
F 	2.894165448	3.554432257	2.347859561
F 	1.206189368	4.315726870	-1.646128408
F 	5.509031505	3.556709577	-1.174008594
