32

H 	1.420511420	2.162881870	1.044631690
C 	3.519008880	1.590004430	0.553324390
C 	2.033593600	1.391493150	0.582024280
C 	1.336724320	0.313458530	-0.050302610
O 	0.065512890	0.299097760	-0.099427710
H 	3.975540860	0.622911760	0.829721360
H 	5.071771420	2.777736810	1.530492410
H 	3.701061550	2.368727910	2.592760230
C 	3.984078950	2.654499260	1.572299080
H 	3.524490910	3.621916210	1.341160870
C 	1.208781120	-1.981511930	-1.189614970
C 	2.098325210	-0.845485030	-0.671370580
H 	0.522405700	-1.621070640	-1.962417510
H 	0.603374820	-2.409411160	-0.383402300
H 	1.830312250	-2.775120360	-1.618537150
H 	2.716366460	-0.430209230	-1.481772640
H 	2.817030190	-1.221471120	0.073254310
O 	5.851311910	0.374283850	-0.889837110
H 	5.557349160	0.240109360	0.027864910
C 	5.055165280	1.325568880	-1.504439740
C 	5.407540070	1.666546880	-2.817313370
C 	4.665556390	2.619575020	-3.517078010
C 	3.567265290	3.243665960	-2.911556680
C 	3.216802480	2.899558800	-1.607074360
C 	3.947031110	1.937725600	-0.881151860
H 	6.268487880	1.177476350	-3.266836120
H 	4.948939090	2.875089800	-4.535804810
H 	2.352308080	3.369685000	-1.143169260
H 	2.986288990	3.987861620	-3.450250960
Zn	-1.304160090	1.813968960	0.278680900
Cl	-0.399850280	3.678670450	-0.387873620
Cl	-3.043432150	0.943041500	1.180883630
