32

H 	1.426380141	2.138564850	1.094520065
C 	3.515137891	1.587031503	0.549135102
C 	2.032871471	1.383401751	0.598965185
C 	1.327592162	0.315668293	-0.040731055
O 	0.056832486	0.301048704	-0.065558203
H 	3.973135367	0.621085036	0.829529603
H 	5.074743760	2.776836237	1.512236826
H 	3.704421656	2.384560572	2.580078264
C 	3.987016238	2.658430781	1.556640173
H 	3.531575080	3.624942554	1.315627292
C 	1.179032818	-1.941513160	-1.247677701
C 	2.077861451	-0.830960229	-0.694788441
H 	0.500597540	-1.552399452	-2.013327365
H 	0.564553797	-2.385136942	-0.457499433
H 	1.793413098	-2.729535725	-1.695971393
H 	2.701046060	-0.398445331	-1.491273354
H 	2.791888278	-1.235184850	0.039033243
O 	5.918384298	0.457134748	-0.817149876
H 	5.602724448	0.320660479	0.092532192
C 	5.093161525	1.353417259	-1.471925368
C 	5.459130915	1.684698497	-2.783125433
C 	4.687514538	2.584898135	-3.518412556
C 	3.546583616	3.165553350	-2.950622109
C 	3.182781862	2.830661976	-1.647123227
C 	3.943052194	1.922638962	-0.886351885
H 	6.352682752	1.229979059	-3.203342572
H 	4.981626082	2.834554608	-4.535314224
H 	2.288827224	3.270456844	-1.210192854
H 	2.943434239	3.869421582	-3.517753968
Zn	-1.303842017	1.813346419	0.355385694
Cl	-0.398605990	3.673968053	-0.315114101
Cl	-3.030061219	0.941491685	1.277438169
