66

C 	0.000000000	0.000000000	0.000000000
C 	-0.508063971	-1.242074258	0.000000000
C 	0.287524450	-2.478817020	0.000000000
O 	-0.205082778	-3.610483372	-0.019889849
H 	-1.689196130	-0.713307407	2.632376345
H 	1.084593522	0.120083595	0.000879796
H 	-1.577533399	-1.415258473	-0.006422105
C 	-0.038129180	-2.477010969	3.972670134
H 	0.238803984	-3.459368045	4.372979347
H 	0.638387020	-1.736023905	4.416340993
H 	0.143673282	-2.478789561	2.892101458
H 	-3.168682352	-5.210641961	3.764447664
H 	-1.424047013	-5.029893278	4.024469618
H 	-2.564595210	-4.605458854	5.316273022
H 	-5.177734473	-4.443900671	-2.579393117
H 	-3.494385641	-4.904525709	-2.265081621
H 	-4.767743788	-5.387153292	-1.120219154
N 	-3.249844814	-3.484697553	0.075567685
C 	-3.492481168	-3.075360953	1.377653737
N 	-2.382876583	-3.188446363	2.205153871
C 	-4.230575038	-3.282816513	-0.993689527
H 	-2.289030930	-3.710099396	-0.177365945
C 	-2.504901748	-3.151999943	3.667229892
H 	-1.580434793	-3.676827362	1.819090838
H 	-5.162047614	-3.027549290	-0.480060386
C 	-2.403888881	-4.582443280	4.233774209
C 	-4.431328293	-4.588032763	-1.789744853
H 	-5.707691550	-1.063356877	-1.580165504
H 	-3.516320074	-2.776212989	3.855827704
C 	-3.860818655	-2.119430662	-1.913711321
C 	-2.631886737	-2.093403617	-2.593044381
C 	-2.307104073	-1.034481164	-3.444357787
C 	-3.213160946	0.015080057	-3.638887978
C 	-4.440789493	-0.001377175	-2.969720886
C 	-4.757867958	-1.060979586	-2.111694761
H 	-1.915617209	-2.900025978	-2.449333813
H 	-1.346559111	-1.026820621	-3.955588968
H 	-2.961236672	0.839962657	-4.301825975
H 	-5.148299286	0.813772440	-3.107390736
C 	-1.506238053	-2.117915614	4.295093534
C 	-1.698428964	-2.074177322	5.828162836
H 	-1.105603308	-1.257851923	6.259219837
H 	-1.378791357	-3.004697048	6.309809218
H 	-2.750218150	-1.898248903	6.088040218
C 	-1.822751963	-0.721429368	3.716691117
H 	-2.858284924	-0.431885943	3.932576857
H 	-1.156601189	0.033474377	4.153129196
O 	-4.586588559	-2.643980025	1.763455986
O 	1.636029378	-2.278299319	0.032450230
C 	2.449330472	-3.485572843	0.055824268
H 	2.260631044	-4.090172669	-0.836315215
H 	2.223223173	-4.077430532	0.948134552
H 	3.481313065	-3.132083088	0.075992882
C 	-0.333668171	2.133256455	1.212204491
C 	-0.787274497	1.289592129	-0.010680395
C 	-2.311137192	1.065429020	0.042339139
C 	-0.419512585	2.048365786	-1.316753814
H 	-0.742535909	1.481088814	-2.196244127
H 	-0.841563184	3.105402205	1.202920623
H 	0.748326195	2.313210607	1.190702231
H 	-0.580044630	1.624725928	2.150271568
H 	-2.827391861	2.032403298	0.033127728
H 	-2.610335766	0.535446574	0.952491330
H 	-2.662588509	0.492777369	-0.819775879
H 	-0.919423763	3.024723432	-1.332360521
H 	0.662044749	2.217134385	-1.387909932
