66

C 	-1.820905820	0.086318170	2.007254470
C 	-0.597321890	-0.402188030	1.749102270
C 	-0.057070100	-1.645892440	2.323670080
O 	1.053655060	-2.106545250	2.044034350
H 	-1.008261180	-0.236898560	-1.517439790
H 	-2.467428400	-0.469251230	2.688916600
H 	0.088347360	0.102093990	1.076841880
C 	-1.734927450	-2.880188880	-1.107630820
H 	-1.528104560	-3.954286380	-1.026480380
H 	-2.824125070	-2.757761420	-1.166783700
H 	-1.398593340	-2.388630860	-0.188211340
H 	2.109066110	-3.859981440	-2.372069590
H 	0.668691900	-4.453764590	-1.523033890
H 	0.677404190	-4.354303580	-3.293925240
H 	5.338268740	1.406747350	0.916793600
H 	4.682082310	-0.014350670	1.752072770
H 	5.287487850	-0.174025250	0.087395830
N 	2.584544210	-0.413779360	0.013591090
C 	1.924417880	-0.670094260	-1.180474350
N 	1.066180960	-1.758825490	-1.105542240
C 	3.356056280	0.817034790	0.220132380
H 	2.297180160	-0.948129820	0.832648860
C 	0.502305250	-2.405669920	-2.297218920
H 	1.091837290	-2.302239050	-0.247673190
H 	3.462584740	1.255204870	-0.776852120
C 	1.013283620	-3.857501540	-2.378229610
C 	4.755278720	0.488136990	0.779334880
H 	2.559346490	3.355068310	-0.402896020
H 	0.903426710	-1.842506570	-3.147721960
C 	2.615428350	1.819310540	1.107145130
C 	2.253420540	1.494142580	2.425538400
C 	1.590089250	2.419823470	3.235822290
C 	1.285780210	3.695101370	2.742840530
C 	1.640382880	4.029939300	1.432086610
C 	2.296716740	3.095582470	0.621226220
H 	2.482248890	0.507016600	2.823542990
H 	1.311770760	2.147792290	4.252367850
H 	0.771722030	4.417669520	3.373749740
H 	1.399397140	5.014852320	1.036260170
C 	-1.061851690	-2.254360590	-2.350731040
C 	-1.608299510	-2.928655150	-3.630110780
H 	-2.674418480	-2.698663980	-3.752222860
H 	-1.507797720	-4.019364500	-3.595266400
H 	-1.083114690	-2.564068060	-4.522848870
C 	-1.399085100	-0.748288430	-2.401066910
H 	-0.955568720	-0.272665360	-3.283646860
H 	-2.486072380	-0.599300880	-2.436128380
O 	2.081691160	0.004305640	-2.207295060
O 	-0.897383740	-2.264304360	3.203919580
C 	-0.403727690	-3.510661250	3.776018920
H 	0.526489400	-3.335212730	4.325234010
H 	-0.224650310	-4.246228370	2.985430030
H 	-1.195784880	-3.846948230	4.447257490
C 	-3.719618070	0.957676720	0.682174030
C 	-2.425494890	1.353147810	1.448389060
C 	-1.470544210	2.116166650	0.510027130
C 	-2.802787770	2.260897080	2.653201280
H 	-1.905462430	2.564720040	3.204462370
H 	-4.222294600	1.859138800	0.309936870
H 	-4.419332520	0.421020050	1.335359640
H 	-3.483588770	0.315190230	-0.173254580
H 	-1.956513100	3.031648580	0.151981600
H 	-1.201602360	1.517945440	-0.366350260
H 	-0.550691350	2.405055760	1.025465250
H 	-3.310370930	3.164884980	2.293723970
H 	-3.477779800	1.742749120	3.346059690
