66

C 	-1.827834348	0.187182416	1.942836719
C 	-0.629967956	-0.362886572	1.691008055
C 	-0.153608545	-1.638032689	2.247405112
O 	0.961846847	-2.112926340	2.015108943
H 	-1.392039139	-0.628316491	-1.129074790
H 	-2.513938216	-0.338827832	2.608673525
H 	0.089216588	0.121709980	1.041593976
C 	-1.517001815	-3.387532211	-1.064478303
H 	-1.098528295	-4.396718727	-1.156060824
H 	-2.609290133	-3.483942449	-1.029965635
H 	-1.196519621	-2.964638168	-0.105762624
H 	2.307785683	-3.372067520	-2.703752413
H 	1.112988373	-4.352336654	-1.834519542
H 	0.925819501	-4.058310819	-3.574711320
H 	5.308069909	1.352046081	0.977218073
H 	4.600084339	-0.051057888	1.798610865
H 	5.213580929	-0.220397646	0.137278145
N 	2.507742794	-0.373078199	0.045681556
C 	1.833510657	-0.596067544	-1.144924894
N 	0.985302126	-1.694785165	-1.098783871
C 	3.313168752	0.830849119	0.264191853
H 	2.243647616	-0.938412617	0.851035803
C 	0.458272119	-2.313417615	-2.320838713
H 	1.054440090	-2.283420059	-0.274040035
H 	3.437891438	1.273007861	-0.728560538
C 	1.240333125	-3.606037278	-2.628830913
C 	4.697412834	0.453900403	0.829323162
H 	2.712998377	3.432137116	-0.305829743
H 	0.664008703	-1.587516267	-3.114873781
C 	2.606549473	1.852981369	1.154451018
C 	2.174437260	1.514065292	2.447068285
C 	1.543140901	2.457761417	3.260970973
C 	1.341435246	3.763601484	2.797876643
C 	1.769699649	4.113160935	1.513538261
C 	2.394653688	3.161436290	0.699193431
H 	2.320729220	0.502159824	2.819869013
H 	1.207113992	2.174740552	4.256484777
H 	0.850172695	4.499218730	3.431053005
H 	1.609938583	5.122957417	1.141007112
C 	-1.099472280	-2.482685809	-2.245652322
C 	-1.620815535	-3.091742440	-3.567167778
H 	-2.717838935	-3.084649216	-3.578521150
H 	-1.295725904	-4.129560664	-3.698577298
H 	-1.272765445	-2.512157951	-4.431858769
C 	-1.733211916	-1.086647923	-2.060297151
H 	-1.461032806	-0.418455724	-2.886256155
H 	-2.827276695	-1.164400812	-2.027259847
O 	1.967152327	0.117441257	-2.147446194
O 	-1.056686639	-2.272900626	3.048103910
C 	-0.620930756	-3.549530234	3.595687725
H 	0.276020277	-3.416011823	4.207825749
H 	-0.405135553	-4.254694170	2.787100111
H 	-1.458107305	-3.898787989	4.201909051
C 	-3.691510838	1.216401584	0.678330836
C 	-2.343695570	1.498365640	1.397264710
C 	-1.359776079	2.173787852	0.422110899
C 	-2.600324599	2.437735318	2.609098119
H 	-1.661936890	2.665240196	3.126128562
H 	-4.127016924	2.157587434	0.321099064
H 	-4.411760155	0.742935765	1.357027152
H 	-3.543911876	0.556259379	-0.182889991
H 	-1.786885842	3.116138350	0.059901324
H 	-1.156413528	1.542345763	-0.448924549
H 	-0.408508778	2.405119875	0.908183179
H 	-3.040885767	3.380363084	2.261552782
H 	-3.292799764	1.981159699	3.326962415
