27

H 	1.927926482	0.930397771	0.047433319
C 	0.000000000	0.000000000	0.000000000
C 	1.372366737	0.000000000	0.000000000
C 	2.209197033	-1.156939360	0.000000000
O 	3.434799420	-1.174942054	0.102894828
H 	-0.509765571	-0.950986271	-0.132250843
H 	0.195892613	0.369572553	2.796262661
H 	-1.478509784	-0.380509075	2.439743458
H 	0.049372041	-1.461260581	2.460044681
C 	-0.399626295	-0.475216690	2.472528084
Cl	1.395153471	-2.772698148	-0.146597638
C 	-2.545409645	3.427763911	-0.230960069
C 	-3.065536696	2.138717612	-0.396912124
C 	-2.221831734	1.032484965	-0.310248308
C 	-0.840397394	1.191750643	-0.064382563
C 	-0.331223232	2.498690501	0.102392505
C 	-1.176892336	3.601927176	0.020070003
H 	-4.125979858	1.998616391	-0.592786730
H 	-2.625004250	0.029432493	-0.436362731
H 	0.725012238	2.651591764	0.305520379
H 	-0.771788469	4.602343315	0.152442407
H 	-3.201255235	4.292986328	-0.294367207
Ti	5.045287847	0.349408442	0.644751659
Cl	6.362703158	-1.436299883	0.566169488
Cl	3.727382522	0.663003538	2.445234040
Cl	6.591079644	1.857263953	1.201549259
Cl	4.419193281	1.304167968	-1.287982487
