27

H 	0.748577520	0.645535440	0.125429380
C 	0.767693500	1.691685840	1.994838090
C 	0.164690000	1.018704090	0.960602950
C 	-1.222936860	0.690678110	0.867264300
O 	-1.759895830	0.023156920	-0.016684850
H 	0.130050890	2.119354450	2.765144400
H 	1.505465070	-0.866374630	2.955758820
H 	1.527083320	0.312579920	4.405224130
H 	-0.097809250	-0.373855420	3.778719590
C 	0.969559630	-0.234105330	3.653607930
Cl	-2.311772170	1.294630520	2.190502160
C 	4.868685100	2.892969540	2.208259520
C 	3.933443050	3.375814290	3.131844710
C 	2.601176740	2.972022230	3.048483310
C 	2.175665070	2.079862600	2.038745680
C 	3.131916200	1.600955300	1.115188430
C 	4.462377560	2.005359430	1.201086170
H 	4.244431780	4.064069670	3.914761340
H 	1.874107120	3.343181200	3.768879930
H 	2.837158300	0.904306060	0.335020570
H 	5.188961760	1.624031210	0.486960260
H 	5.909989730	3.201466080	2.274330500
Ti	-1.038806960	-1.268085000	-1.760367790
Cl	-3.204578550	-1.729547500	-1.942248280
Cl	0.166830870	-2.269986670	-0.140495480
Cl	-0.304054350	-2.536100880	-3.442604340
Cl	-0.287368710	0.694222770	-2.554876440
