27

H 	0.744568831	0.686549631	0.105896835
C 	0.769810484	1.695595832	1.994276848
C 	0.163514965	1.046406899	0.948165031
C 	-1.223409938	0.719387257	0.857109586
O 	-1.762356164	0.050247961	-0.023118919
H 	0.135305939	2.109572436	2.773862292
H 	1.506592420	-0.877051773	2.906789495
H 	1.523281625	0.273032898	4.380009946
H 	-0.098336278	-0.403262542	3.735154395
C 	0.969216455	-0.260509280	3.616872686
Cl	-2.310537232	1.329465419	2.176500784
C 	4.866992634	2.898754861	2.212279189
C 	3.933824385	3.367371608	3.144646045
C 	2.603891780	2.957903024	3.062706454
C 	2.177443603	2.078825672	2.043127464
C 	3.131330065	1.613602007	1.111016097
C 	4.460269998	2.020361838	1.197788697
H 	4.244222531	4.049522348	3.932591646
H 	1.877610886	3.319160325	3.788362304
H 	2.835337854	0.926304267	0.323435292
H 	5.184495056	1.652846846	0.474674015
H 	5.906171310	3.213254551	2.275218522
Ti	-1.037010532	-1.278588188	-1.731625412
Cl	-3.203094617	-1.726457999	-1.926573743
Cl	0.141852280	-2.256494628	-0.079071449
Cl	-0.294922755	-2.588971935	-3.376412406
Cl	-0.265425055	0.659700905	-2.560306702
