23

H 	  1.942558	  0.916212	 -0.002411
C 	  0.000000	  0.000000	  0.000000
C 	  1.362327	  0.000000	 -0.000000
C 	  2.076569	 -1.244333	  0.000000
O 	  3.317560	 -1.380166	 -0.006200
H 	 -0.501295	 -0.971134	 -0.003796
C 	 -2.665363	  3.329099	 -0.000161
C 	 -1.280837	  3.554781	  0.036108
C 	 -0.395074	  2.482602	  0.036249
C 	 -0.879275	  1.153025	  0.001301
C 	 -2.277199	  0.943698	 -0.032441
C 	 -3.161598	  2.020868	 -0.034584
H 	 -0.897399	  4.571859	  0.064897
H 	  0.674260	  2.671460	  0.066518
H 	 -2.659888	 -0.074808	 -0.058018
H 	 -4.234116	  1.843962	 -0.061874
H 	 -3.352556	  4.172119	 -0.000683
H 	  1.467372	 -2.167247	  0.007545
Ti	  5.069799	 -0.012917	 -0.037103
Cl	  6.793608	  1.416722	 -0.070326
Cl	  4.161830	  0.683185	 -1.979363
Cl	  4.204157	  0.720459	  1.912187
Cl	  6.248173	 -1.901557	 -0.034484
