23

H 	-0.489362950	0.098563180	-0.564347200
C 	-0.296682860	-1.996501130	-0.115056290
C 	0.145186970	-0.720256530	-0.227283600
C 	1.530257450	-0.381018770	0.106180660
O 	2.016701910	0.744217220	0.033465540
H 	0.425587130	-2.739983320	0.234488930
C 	-4.162787400	-3.638489720	-0.949617360
C 	-3.937410090	-2.267314890	-1.144582430
C 	-2.687377890	-1.713732350	-0.876652860
C 	-1.627217800	-2.521985570	-0.405907170
C 	-1.871965100	-3.899692030	-0.214272970
C 	-3.125128660	-4.453210320	-0.482876850
H 	-4.742624250	-1.631496910	-1.507175780
H 	-2.529071120	-0.649839760	-1.033991930
H 	-1.065171890	-4.534917020	0.148099590
H 	-3.292575350	-5.517173090	-0.328958430
H 	-5.140880180	-4.065968220	-1.160913170
H 	2.150848560	-1.247619890	0.445886040
Ti	2.041994950	5.872867740	1.947661430
Cl	1.862998170	3.802293920	1.267510870
Cl	0.854906060	6.148181990	3.782684690
Cl	1.292133280	7.227515180	0.381760540
Cl	4.153942890	6.330746340	2.365670960
