23

H 	2.406734920	0.956169160	0.356645620
C 	4.163921500	0.109163040	-0.545124720
C 	2.837646200	0.153422530	-0.232995060
C 	1.962438820	-0.890183530	-0.686224670
O 	0.737558370	-0.976163260	-0.454923720
H 	4.512009540	-0.743222030	-1.135059540
C 	7.244207000	2.882404100	0.468341990
C 	5.920617090	3.151699520	0.851247220
C 	4.902107880	2.258788110	0.532861930
C 	5.188027790	1.071187150	-0.183124220
C 	6.526891770	0.816893750	-0.563553280
C 	7.545173760	1.712552100	-0.239557810
H 	5.688944980	4.062477880	1.399044890
H 	3.881736310	2.480931710	0.833477130
H 	6.757534610	-0.092363430	-1.116277450
H 	8.570023210	1.502762860	-0.537872400
H 	8.035756310	3.584665690	0.721282300
H 	2.418321940	-1.691919670	-1.296834410
Ti	-0.755854290	0.199076890	0.696576990
Cl	-2.211696760	1.422817160	1.880998180
Cl	0.595452150	-0.290064880	2.434746280
Cl	-0.171946560	1.853364950	-0.723693100
Cl	-2.181228210	-1.361597520	-0.007018130
