23

H 	-0.489362954	0.098563179	-0.564347204
C 	-0.296682859	-1.996501132	-0.115056290
C 	0.145186967	-0.720256534	-0.227283598
C 	1.530257446	-0.381018767	0.106180655
O 	2.016701910	0.744217222	0.033465541
H 	0.425587133	-2.739983320	0.234488925
C 	-4.162787404	-3.638489717	-0.949617361
C 	-3.937410089	-2.267314892	-1.144582429
C 	-2.687377895	-1.713732346	-0.876652856
C 	-1.627217801	-2.521985573	-0.405907167
C 	-1.871965097	-3.899692027	-0.214272969
C 	-3.125128660	-4.453210319	-0.482876849
H 	-4.742624248	-1.631496913	-1.507175785
H 	-2.529071123	-0.649839764	-1.033991934
H 	-1.065171893	-4.534917024	0.148099592
H 	-3.292575353	-5.517173095	-0.328958427
H 	-5.140880179	-4.065968222	-1.160913173
H 	2.150848564	-1.247619888	0.445886040
Ti	2.041994951	5.872867737	1.947661428
Cl	1.862998173	3.802293922	1.267510868
Cl	0.854906061	6.148181993	3.782684693
Cl	1.292133282	7.227515176	0.381760535
Cl	4.153942887	6.330746343	2.365670965
