23

H 	2.413102190	0.941100987	0.372065353
C 	4.165541633	0.104612856	-0.545663892
C 	2.842702046	0.142098711	-0.222205989
C 	1.968047948	-0.903401782	-0.669882235
O 	0.744432101	-0.988728910	-0.437436097
H 	4.511675916	-0.742435297	-1.143253628
C 	7.238234333	2.880911109	0.473052742
C 	5.919811423	3.130916175	0.883440259
C 	4.903638130	2.237572481	0.561769039
C 	5.186908255	1.068084456	-0.183552001
C 	6.520242624	0.833014923	-0.591118007
C 	7.536197544	1.729635820	-0.264975105
H 	5.690066450	4.026951257	1.454964328
H 	3.887049146	2.444285409	0.884064546
H 	6.748443599	-0.062564118	-1.165854570
H 	8.557052962	1.534604449	-0.584585971
H 	8.028311443	3.583361143	0.728513802
H 	2.423825350	-1.706287783	-1.278642923
Ti	-0.752153431	0.213903336	0.682641311
Cl	-2.211612635	1.467960734	1.828855339
Cl	0.599052615	-0.217879688	2.434538410
Cl	-0.174427832	1.824150828	-0.787135075
Cl	-2.171763479	-1.369004814	0.023364383
