23

H 	1.922540125	0.925510861	0.002359140
C 	0.000000000	0.000000000	0.000000000
C 	1.354980646	-0.000000000	0.000000000
C 	2.201372244	-1.176039752	0.000000000
O 	3.415540976	-1.189730406	0.023402239
H 	-0.505988882	-0.964217472	-0.001814691
C 	-2.640638297	3.356160234	0.010885563
C 	-1.254403254	3.572848354	-0.015399861
C 	-0.375144620	2.494591165	-0.019772227
C 	-0.865840423	1.168243330	0.002858085
C 	-2.264364206	0.967969182	0.027606948
C 	-3.143274753	2.050783558	0.032374095
H 	-0.864138500	4.587692746	-0.033621653
H 	0.695307690	2.679556637	-0.042361234
H 	-2.652817907	-0.048399859	0.043295570
H 	-4.216845650	1.878581381	0.052205986
H 	-3.322818535	4.203295003	0.013803633
Cl	1.345315638	-2.798872926	-0.042677070
Sn	5.341638104	0.782006670	0.331239520
Cl	4.282419429	1.470665021	-1.662763951
Cl	6.569582437	-1.208070740	0.228236713
Cl	7.010751103	2.436345465	0.611204431
Cl	3.995290419	1.094678382	2.242517925
