23

H 	  1.922540	  0.925511	  0.002359
C 	  0.000000	  0.000000	  0.000000
C 	  1.354981	  0.000000	  0.000000
C 	  2.201372	 -1.176040	  0.000000
O 	  3.415541	 -1.189730	  0.023402
H 	 -0.505989	 -0.964217	 -0.001815
C 	 -2.640638	  3.356160	  0.010886
C 	 -1.254403	  3.572848	 -0.015400
C 	 -0.375145	  2.494591	 -0.019772
C 	 -0.865840	  1.168243	  0.002858
C 	 -2.264364	  0.967969	  0.027607
C 	 -3.143275	  2.050784	  0.032374
H 	 -0.864138	  4.587693	 -0.033622
H 	  0.695308	  2.679557	 -0.042361
H 	 -2.652818	 -0.048400	  0.043296
H 	 -4.216846	  1.878581	  0.052206
H 	 -3.322819	  4.203295	  0.013804
Cl	  1.345316	 -2.798873	 -0.042677
Sn	  5.341638	  0.782007	  0.331240
Cl	  4.282419	  1.470665	 -1.662764
Cl	  6.569582	 -1.208071	  0.228237
Cl	  7.010751	  2.436345	  0.611204
Cl	  3.995290	  1.094678	  2.242518
