23

H 	2.504094978	0.660962550	0.365303320
C 	4.348083041	-0.141697719	-0.347564811
C 	3.025287385	-0.192023537	-0.058339091
C 	2.156572076	-1.333142381	-0.264808773
O 	0.965750130	-1.383455520	-0.031672569
H 	4.807654606	-1.033314084	-0.771307195
C 	7.044753061	3.126753005	0.183567274
C 	5.704878401	3.271078367	0.574972874
C 	4.808538559	2.219565260	0.411729183
C 	5.234893342	0.993727468	-0.150441954
C 	6.587685281	0.864840723	-0.537654028
C 	7.483765375	1.920770862	-0.373199005
H 	5.364389149	4.208169877	1.009109171
H 	3.775011662	2.346902865	0.721887086
H 	6.926892670	-0.074590257	-0.969575573
H 	8.521386265	1.804684947	-0.677285033
H 	7.740668187	3.952386258	0.314133651
Cl	2.942864894	-2.846657093	-0.942494969
Sn	-0.909226802	0.506789223	0.745371413
Cl	0.575668309	0.539770577	2.580103848
Cl	-2.157794796	-1.450502115	0.447120614
Cl	-2.538820045	2.097917474	1.388715923
Cl	0.008102971	1.480762641	-1.197122525
