20

H 	0.090393780	-1.809884650	-0.515558530
C 	-0.907818450	-0.007712830	-0.049434510
C 	0.182665480	-0.752196470	-0.265122580
C 	1.559289180	-0.220139740	-0.182914190
H 	-0.824316190	1.044912940	0.202425940
O 	2.561338880	-1.166374790	-0.428954060
H 	1.828420180	0.791111100	0.040335080
C 	-3.323744570	0.413635500	0.391357620
C 	-2.321175930	-0.611375640	-0.147474520
C 	-2.359817740	-1.892022880	0.691918860
C 	-2.612630600	-0.924937630	-1.618142690
H 	-1.882308800	-1.636324750	-2.005334840
H 	-4.340293850	0.020309140	0.337946320
H 	-3.276229000	1.332984890	-0.193363080
H 	-3.098432060	0.652858110	1.431245190
H 	-3.349267970	-2.350168630	0.646957290
H 	-2.127862260	-1.668689880	1.733877760
H 	-1.627753660	-2.610074750	0.320646660
H 	-3.609188200	-1.355895540	-1.728047420
H 	-2.560214340	-0.014813110	-2.216712010
