33

H 	1.504412690	1.798517070	0.928141510
C 	3.586218230	1.123672210	0.562113150
C 	2.092189310	0.942599460	0.602423900
C 	1.350320740	-0.050921730	-0.136327630
O 	0.232260850	0.193993160	-0.662527990
H 	4.096045030	0.170463430	0.385550690
H 	5.219980930	1.965551450	1.733921010
H 	4.044647550	1.024852290	2.685263350
C 	4.155957150	1.733001380	1.855412050
H 	3.632541220	2.653579220	2.135810410
N 	1.965602900	-1.301926770	-0.372008960
C 	1.265452670	-2.206509020	-1.304549820
C 	2.625782430	-2.006010110	0.749362260
H 	0.947552010	-1.645992300	-2.184873820
H 	0.378902210	-2.657931660	-0.836384150
H 	1.961395520	-2.998679550	-1.598581340
H 	3.483381800	-2.578870660	0.378883530
H 	1.917177860	-2.699294590	1.227249550
H 	2.963142960	-1.292323090	1.501274510
O 	3.943752580	0.004402840	-2.151042020
H 	3.402024360	-0.455963710	-1.468817300
C 	3.912325280	1.372364860	-1.968155000
C 	4.052589350	2.160625650	-3.119190590
C 	4.014232430	3.550068390	-3.029060570
C 	3.847710570	4.171571910	-1.782904050
C 	3.730217800	3.390232960	-0.637096380
C 	3.780369140	1.985737260	-0.695980340
H 	4.158988900	1.657792680	-4.077341420
H 	4.091301260	4.150529720	-3.932542170
H 	3.593614970	3.877026970	0.324889570
H 	3.795963630	5.254697030	-1.711389400
I 	0.041865050	2.651066870	-1.801726620
I 	0.087300550	5.113670030	-3.097785150
