29

H 	-1.521156993	-1.484216946	-0.005171883
C 	0.000000000	0.000000000	0.000000000
C 	-1.289989864	-0.424794978	0.000000000
C 	-2.444070760	0.453203409	0.000000000
O 	-3.605663882	-0.021975601	-0.023580720
H 	0.199090300	1.071976562	-0.002692545
C 	3.544822813	-2.382199652	-0.023313786
C 	3.624455105	-0.985487067	-0.054313861
C 	2.456940109	-0.223287405	-0.043160232
C 	1.186382848	-0.840957899	-0.003803368
C 	1.124848146	-2.254095930	0.028648453
C 	2.291474346	-3.011588108	0.019131634
H 	4.593928615	-0.493983744	-0.086423975
H 	2.517329283	0.863312011	-0.066669149
H 	0.162619931	-2.756894356	0.063047840
H 	2.229703704	-4.096958916	0.044730550
H 	4.453175735	-2.980408451	-0.031211327
C 	-3.637671994	2.716840967	0.000588475
C 	-2.300648127	1.967170072	0.031161237
H 	-4.261481109	2.444161646	0.857368280
H 	-4.202142059	2.477632136	-0.905970424
H 	-3.460109310	3.797366674	0.027067461
H 	-1.728126001	2.229900913	0.932896598
H 	-1.669117756	2.264222119	-0.818721758
Ti	-4.639255033	-1.934048654	-0.090492996
Cl	-5.617192752	-3.952130325	-0.161184964
Cl	-3.528610852	-2.180132354	-2.041654478
Cl	-3.600570204	-2.279459905	1.885331296
Cl	-6.501932241	-0.707580537	-0.090177745
