29

H 	2.496765470	0.770128330	-0.133359690
C 	4.355323150	-0.170934020	0.306787590
C 	3.015269660	-0.158445330	0.081985000
C 	2.173581420	-1.340778470	0.103598700
O 	0.943428360	-1.254139950	-0.135400480
H 	4.839655210	-1.124651190	0.520673260
C 	7.076531810	3.121910900	0.275849290
C 	7.531895440	1.822011170	0.526678960
C 	6.628152150	0.759788850	0.535094540
C 	5.251783220	0.973870690	0.290775240
C 	4.809369010	2.294698070	0.039212760
C 	5.713493390	3.352587480	0.032591320
H 	8.587585960	1.639445460	0.714698720
H 	6.980456460	-0.252034510	0.729908580
H 	3.757337400	2.489435480	-0.150809640
H 	5.360670950	4.362946670	-0.162555220
H 	7.778250010	3.953475280	0.268630110
C 	1.691615490	-3.838996670	0.406509860
C 	2.740823580	-2.720550360	0.405607260
H 	1.190952990	-3.911232810	-0.564041210
H 	0.920669820	-3.654904340	1.161744300
H 	2.171985850	-4.799294660	0.624825900
H 	3.526443960	-2.926557760	-0.337244150
H 	3.255908390	-2.670874570	1.376322000
Ti	-0.575454830	0.202850560	-0.688650310
Cl	-2.071764380	1.771854710	-1.268424140
Cl	-0.019297680	1.168025850	1.276785160
Cl	0.722665490	0.478018920	-2.518093210
Cl	-1.978424360	-1.532030950	-0.641238590
