29

H 	2.523730146	0.743031361	-0.210230153
C 	4.366998170	-0.186467997	0.294981904
C 	3.033534677	-0.181437963	0.037349542
C 	2.185848983	-1.357483548	0.070959542
O 	0.955275797	-1.262172430	-0.157634308
H 	4.848522361	-1.131230255	0.548628659
C 	7.052713655	3.134361230	0.280385061
C 	7.505397740	1.853008500	0.614032559
C 	6.615337830	0.779720693	0.610771320
C 	5.254611560	0.965291473	0.277051288
C 	4.814761939	2.267344307	-0.059087766
C 	5.705580896	3.335677942	-0.056540351
H 	8.548829660	1.692791995	0.874927102
H 	6.966151858	-0.217707631	0.869545485
H 	3.775491691	2.439999529	-0.323625549
H 	5.354190898	4.331192853	-0.317262114
H 	7.743918557	3.974156726	0.281074667
C 	1.681303470	-3.845969397	0.389724730
C 	2.742488985	-2.739486046	0.377320659
H 	1.177882955	-3.919381603	-0.579162205
H 	0.914013423	-3.646691448	1.144211734
H 	2.150309990	-4.810053932	0.614089034
H 	3.522930629	-2.957597948	-0.366503096
H 	3.261169504	-2.687707949	1.345649726
Ti	-0.557014568	0.227606355	-0.629172535
Cl	-2.046607024	1.834457689	-1.112035120
Cl	0.059056828	1.113864950	1.354793330
Cl	0.696673439	0.548205487	-2.480534011
Cl	-1.977430658	-1.491700115	-0.615247224
