31

H 	1.568860560	2.199331820	-0.940623690
C 	3.434323370	1.189715810	-0.569143740
C 	2.063578520	1.287225330	-0.637372380
C 	1.184714810	0.218217210	-0.229715600
O 	-0.063896750	0.312522720	-0.156689330
H 	3.852440610	0.211223990	-0.343774500
H 	2.968036790	2.372884920	1.904084190
H 	4.771979390	1.901548980	1.784198400
H 	3.483898660	0.600478800	2.149393700
C 	3.729818690	1.605903960	1.826178700
O 	1.785345610	-0.948631440	0.101932430
C 	0.895666270	-2.020875860	0.552458460
H 	0.204418610	-2.294369560	-0.249503310
H 	0.328437850	-1.693626440	1.428272690
H 	1.561209220	-2.849332770	0.798053350
C 	5.761839020	1.732862970	-1.201952360
C 	6.760057370	2.584470920	-1.666529800
C 	6.443675270	3.907662170	-2.001723210
C 	5.128640300	4.366664090	-1.870385860
C 	4.148136370	3.495808850	-1.409061300
C 	4.418380900	2.156703570	-1.060099690
H 	6.005339120	0.705777210	-0.936144420
H 	7.780156880	2.221465390	-1.767995300
H 	7.215899910	4.582799620	-2.363009070
H 	4.852923220	5.387793950	-2.119632040
F 	2.875132070	3.986963870	-1.284003340
Ti	-1.554731410	1.895034130	-0.150455630
Cl	-3.062526830	3.555953710	-0.115323580
Cl	-0.977172590	2.167595260	-2.308986980
Cl	-2.966402530	0.237237790	0.369968630
Cl	-0.248087480	2.782926140	1.474263200
