31

H 	1.585867183	2.181285502	-0.960182910
C 	3.445197459	1.179722677	-0.549607649
C 	2.076773653	1.274059586	-0.637810615
C 	1.192170881	0.208126922	-0.235304558
O 	-0.055676594	0.303084493	-0.181392737
H 	3.861954771	0.205846844	-0.304185212
H 	3.195340759	2.621734841	1.801863089
H 	4.827851769	1.713793751	1.840422000
H 	3.239249137	0.807164495	2.215719747
C 	3.744297775	1.688761645	1.838687588
O 	1.784263661	-0.956939040	0.110991239
C 	0.883960851	-2.024358367	0.547233904
H 	0.201227187	-2.292214532	-0.263538334
H 	0.306633704	-1.696248808	1.415680478
H 	1.541334045	-2.856882163	0.799835871
C 	5.761219426	1.713452906	-1.242400619
C 	6.748799356	2.568494327	-1.724371333
C 	6.434076079	3.902182307	-2.014604188
C 	5.131854305	4.370704890	-1.817206774
C 	4.163702734	3.495690020	-1.341231076
C 	4.428995804	2.144855208	-1.043347686
H 	6.004407669	0.677759925	-1.013766170
H 	7.760383148	2.199997087	-1.873615141
H 	7.197495920	4.578595186	-2.390729386
H 	4.855061094	5.400407138	-2.026213758
F 	2.907266566	3.995068382	-1.137535145
Ti	-1.564146723	1.862875782	-0.167242816
Cl	-3.099013854	3.496666627	-0.117600903
Cl	-0.977455448	2.171415190	-2.317694942
Cl	-2.955701336	0.180038775	0.326135265
Cl	-0.277299182	2.744795514	1.469691394
