22

C 	1.378390814	0.000000000	0.000000000
C 	0.000000000	0.000000000	0.000000000
C 	-0.559042439	0.315077104	2.307744367
H 	1.955431807	-0.921275237	0.003183820
C 	2.144853414	1.232188252	0.000000000
H 	-0.107106129	-0.587276650	2.701897834
H 	-0.481576151	0.965683426	-0.149798491
H 	-1.638333675	0.334173737	2.209842565
H 	-0.050393481	1.253485879	2.496401729
O 	3.370235092	1.295496033	0.004197737
H 	1.534358790	2.168459174	-0.014866262
C 	-2.578475523	-3.325944236	-0.851729544
C 	-3.017909510	-2.013761185	-1.029835713
C 	-2.172588007	-0.948002740	-0.731036612
C 	-0.865533065	-1.164093037	-0.257044842
C 	-0.440198241	-2.493687072	-0.080618543
C 	-1.286756299	-3.558700319	-0.372903824
H 	-4.020823063	-1.818930622	-1.402413418
H 	-2.524994526	0.071016214	-0.876020290
H 	0.557171818	-2.701488140	0.295255036
H 	-0.937210026	-4.577987906	-0.225921374
H 	-3.236762781	-4.160711947	-1.079651333
