22

C 	 -0.735878	  0.822005	  1.553603
C 	 -0.313674	  0.866494	  0.242220
C 	 -2.355086	  0.759552	 -1.006254
H 	 -0.741540	 -0.101546	  2.126976
C 	 -1.203445	  2.006789	  2.248889
H 	 -2.690777	 -0.214960	 -0.672361
H 	 -0.208852	  1.858145	 -0.196574
H 	 -1.936763	  0.831555	 -2.003570
H 	 -2.864197	  1.628780	 -0.606036
O 	 -1.594659	  2.028593	  3.411671
H 	 -1.179469	  2.948338	  1.646860
C 	  1.899153	 -2.154771	 -1.858076
C 	  1.952013	 -0.819027	 -2.257631
C 	  1.212956	  0.143616	 -1.574401
C 	  0.411196	 -0.199880	 -0.470341
C 	  0.367511	 -1.551943	 -0.083206
C 	  1.100728	 -2.515040	 -0.769631
H 	  2.570012	 -0.525301	 -3.102859
H 	  1.263644	  1.182546	 -1.893250
H 	 -0.249415	 -1.858843	  0.756094
H 	  1.049102	 -3.554518	 -0.454109
H 	  2.471151	 -2.910046	 -2.391466
