22

C 	1.317661996	-0.578774452	2.039278332
C 	2.213290682	-0.441574874	-0.408657507
C 	-1.516748517	-0.560715397	-2.918983354
H 	1.237961209	-2.362771477	3.054497353
C 	0.394368627	1.602977249	3.426928357
H 	-2.257478545	-2.354893794	-2.265778411
H 	2.472236716	1.444641614	-1.194507241
H 	-0.657635671	-0.518805939	-4.778547088
H 	-2.449958810	1.141171289	-2.262662120
O 	-0.427553484	1.539544378	5.599957215
H 	0.488738053	3.435297406	2.378658007
C 	6.300174727	-6.196640185	-4.441286362
C 	6.302251687	-3.697886775	-5.279890956
C 	4.964500863	-1.859000822	-3.955842479
C 	3.590534231	-2.461051238	-1.759312289
C 	3.613742203	-4.990978930	-0.942874201
C 	4.951745419	-6.828378576	-2.263415044
H 	7.345888806	-3.180579805	-6.973754130
H 	4.981615677	0.081158824	-4.637369202
H 	2.573255352	-5.542554875	0.736731216
H 	4.939600093	-8.770310955	-1.589416688
H 	7.336921186	-7.640433520	-5.473049992
