28

H 	2.039903230	0.934126359	-0.026046335
C 	0.000000000	0.000000000	0.000000000
C 	1.499500653	-0.005288340	0.000000000
C 	2.317859115	-1.193439017	-0.000000000
O 	3.593458314	-1.171260354	-0.119106843
H 	-0.335355939	-0.567779798	-0.885851059
H 	-1.642186033	1.428376354	-0.170165660
H 	-0.161380394	1.922212905	-1.027921963
C 	-0.548648206	1.440214329	-0.123281700
H 	-0.248893143	2.039991059	0.743326709
N 	1.738833759	-2.416485854	0.098381144
H 	2.351406736	-3.223499363	0.142191406
H 	0.777221781	-2.513156092	0.403625786
C 	-0.112151496	-0.419367046	2.514844275
C 	-0.645337241	-1.055119780	3.637323219
C 	-1.656530748	-1.995753289	3.451807817
C 	-2.149271539	-2.318662193	2.191245258
C 	-1.600522539	-1.671978264	1.077682232
C 	-0.581891223	-0.718021023	1.223796589
H 	0.682505275	0.312003940	2.644942273
H 	-0.288542058	-0.834086970	4.639509665
F 	-2.181721135	-2.624773011	4.546570039
H 	-2.941775300	-3.054974317	2.090021834
H 	-1.977926203	-1.909177899	0.084471029
B 	4.486562183	0.194999778	-0.330578817
F 	4.001359583	0.777231446	-1.498327925
F 	5.767889332	-0.279935236	-0.419159661
F 	4.236713234	0.975288666	0.798321984
