23

H 	2.333887400	0.695384590	-0.024766470
C 	4.118662360	-0.438757520	0.241341800
C 	2.752014580	-0.272640860	0.239090620
C 	1.837881320	-1.313297480	0.545071770
O 	0.566290680	-1.147389250	0.522482090
H 	4.572386850	-1.391344060	0.510851860
C 	6.459173080	0.382822920	-0.011402480
H 	6.870389920	1.007627070	0.792331720
H 	6.922653050	0.675832430	-0.960894270
H 	6.710601760	-0.661830330	0.192871240
N 	5.004463890	0.518480300	-0.091141340
H 	4.635437330	1.431286680	-0.346963260
C 	2.365551670	-3.609597340	-0.394816760
C 	2.279181730	-2.728492280	0.876201800
H 	3.123812250	-3.229914630	-1.089783410
H 	1.402196110	-3.625093600	-0.915200470
H 	2.629903320	-4.637818370	-0.123196380
H 	3.242253300	-2.727889740	1.399852060
H 	1.532226150	-3.142915150	1.561711800
B 	-0.201347120	0.246301380	0.159743300
F 	0.194869640	0.575470860	-1.140748740
F 	0.237536510	1.182590330	1.099595370
F 	-1.532954670	-0.081755180	0.271774210
