29

H 	1.922508567	0.928562911	-0.080306888
C 	0.000000000	0.000000000	0.000000000
C 	1.370868848	0.000000000	-0.000000000
C 	2.209424275	-1.183967992	0.000000000
O 	3.435654385	-1.144428150	-0.317142089
H 	-0.537172047	-0.933103102	0.161735842
H 	0.095333384	0.379415778	-2.720935298
H 	-1.563054398	-0.366995158	-2.296218289
H 	-0.039785216	-1.444647076	-2.398279286
C 	-0.484098385	-0.456749921	-2.350308317
N 	1.684550789	-2.398742107	0.321881946
H 	2.321845443	-3.186364468	0.357749143
H 	0.795061205	-2.480215443	0.795003927
C 	-2.192069212	1.066404214	0.460335091
C 	-3.016287323	2.185801591	0.586683656
C 	-2.512504908	3.466873226	0.341214326
C 	-1.172559359	3.585022012	-0.027991662
C 	-0.326768001	2.493031017	-0.156565229
C 	-0.837207990	1.203888548	0.096438532
H 	-2.595083887	0.073694502	0.649364001
H 	-4.057216676	2.064538092	0.875956323
H 	-3.131693446	4.355474359	0.424744966
F 	-0.673130371	4.831934158	-0.282510315
H 	0.702930724	2.654557407	-0.460292665
Ti	4.790120613	0.231675611	-1.240008476
Cl	6.166833733	1.703443630	-2.236180802
Cl	4.561952252	1.438736880	0.655965242
Cl	6.215982659	-1.490849892	-1.257464838
Cl	3.192521910	0.390800796	-2.845896557
