23

H 	1.915342329	0.927398501	0.057887418
C 	0.000000000	0.000000000	0.000000000
C 	1.351741446	0.000000000	-0.000000000
C 	2.201574520	-1.193467502	0.000000000
O 	3.406066657	-1.157431244	0.384886110
H 	-0.535573795	-0.952228856	-0.003888743
C 	-2.606941280	3.387383514	0.129504022
C 	-1.217991728	3.583139188	0.150716078
C 	-0.351468471	2.494638239	0.108556033
C 	-0.861587018	1.177623716	0.044474374
C 	-2.261171879	0.996671827	0.027408826
C 	-3.126583842	2.090356357	0.067567684
H 	-0.812299344	4.590787733	0.202882010
H 	0.721508835	2.665658091	0.133493148
H 	-2.666195027	-0.012994957	-0.017594560
H 	-4.202464244	1.932115654	0.052712483
H 	-3.277705315	4.242890272	0.163202351
N 	1.700882689	-2.383619124	-0.416991368
H 	2.312344379	-3.191687685	-0.404534852
H 	0.803902973	-2.453646334	-0.876688950
Zn	4.533912342	0.338224052	1.264511980
Cl	5.880253347	-0.635499114	2.626834975
Cl	3.973880224	2.298956769	0.503784608
