23

H 	2.474821100	0.514197930	0.894388900
C 	4.110704000	-0.057059760	-0.344612630
C 	2.880921870	-0.212923690	0.195204500
C 	1.942243850	-1.290772620	-0.130278030
O 	0.697023490	-1.180790100	0.070398530
H 	4.463782190	-0.775048570	-1.089080560
C 	6.919698590	3.076399090	0.421729030
C 	5.680455370	3.082684120	1.080591100
C 	4.750991660	2.072822960	0.845115110
C 	5.045531590	1.028192810	-0.061367930
C 	6.295049520	1.037364080	-0.719065480
C 	7.224667330	2.050302530	-0.479034460
H 	5.440493700	3.881869780	1.778408030
H 	3.793411770	2.098061310	1.359507760
H 	6.531022590	0.240220590	-1.422607030
H 	8.182819070	2.041149740	-0.994134000
H 	7.640568650	3.869280920	0.609897710
N 	2.403316340	-2.449155230	-0.667953840
H 	1.732794160	-3.179842390	-0.879813250
H 	3.390527900	-2.664497490	-0.702061400
Zn	-0.451434360	0.416781380	0.709692770
Cl	-2.334100490	0.264002210	-0.317321330
Cl	0.622904640	1.631848050	2.163811740
