28

H 	-1.707154820	-1.291202195	-0.000221639
C 	0.000000000	0.000000000	0.000000000
C 	-1.333256723	-0.269866828	-0.000000000
C 	-2.363218648	0.743749601	-0.000000000
O 	-3.584521719	0.408001226	0.007126104
H 	0.334646119	1.035033124	0.001901921
C 	0.818636254	-2.390438123	-0.005914743
C 	1.869478247	-3.298804568	-0.006717129
C 	3.197662924	-2.842874945	-0.002295564
C 	3.473914393	-1.473197688	0.002325323
C 	2.408377880	-0.583183937	0.003018371
C 	1.057157161	-0.992649497	-0.000637674
H 	-0.204770945	-2.754671281	-0.009003151
H 	1.661061605	-4.365280207	-0.010241623
H 	4.019461128	-3.554806516	-0.003083113
H 	4.490867517	-1.091227058	0.005542786
F 	2.689130316	0.756157852	0.008374511
C 	-3.286582940	3.133328914	-0.021795725
C 	-2.049925740	2.226963992	-0.008951089
H 	-3.910637344	2.961796624	0.860704152
H 	-3.903704095	2.946096181	-0.906075547
H 	-2.975291820	4.183190505	-0.029805029
H 	-1.421415566	2.438377163	0.868768472
H 	-1.410249582	2.427374032	-0.880862378
Al	-4.601475108	-1.174371378	0.037010127
F 	-3.465720260	-2.431946500	-0.018929988
F 	-5.525277429	-1.033671689	-1.354195073
F 	-5.403252359	-1.051571209	1.504072975
