28

H 	2.422321750	0.710749630	0.418664340
C 	4.278960790	-0.194286710	-0.129444670
C 	2.944223210	-0.199740200	0.132637180
C 	2.108190890	-1.375288420	0.044878040
O 	0.881631400	-1.308346440	0.362821650
H 	4.768591540	-1.120898690	-0.421276560
C 	4.689614660	2.257282430	0.315483110
C 	5.564438530	3.333570490	0.394714950
C 	6.928964710	3.154869970	0.113720070
C 	7.418312370	1.896348350	-0.250780980
C 	6.526011630	0.834166720	-0.326075690
C 	5.147107070	0.963898630	-0.046320850
H 	3.635938460	2.405855690	0.535494040
H 	5.189869460	4.314551360	0.676492760
H 	7.613771320	3.997475780	0.178558400
H 	8.468960330	1.732953750	-0.474141050
F 	7.012373140	-0.396348940	-0.688843390
C 	1.629750980	-3.863291770	-0.364130640
C 	2.639516280	-2.711270870	-0.435891210
H 	0.746266880	-3.654508900	-0.975263430
H 	1.292522640	-4.027885840	0.664574750
H 	2.096585170	-4.784863670	-0.728495010
H 	2.994248410	-2.568166140	-1.468505290
H 	3.539775400	-2.946414870	0.150230840
Al	-0.166044590	0.048572640	1.156743680
F 	0.377135960	1.479634810	0.430007740
F 	0.291623470	-0.070955410	2.771305040
F 	-1.732706010	-0.398777080	0.770569780
