30

H 	1.912050827	0.914046122	0.164000522
C 	0.000000000	0.000000000	0.000000000
C 	1.349738169	0.000000000	-0.000000000
C 	2.192399931	-1.200951552	-0.000000000
O 	3.237749628	-1.256026558	0.741233273
H 	-0.532183456	-0.945930660	-0.102198449
C 	-0.359118089	2.434287074	0.552721380
C 	-1.209330449	3.527472278	0.688925697
C 	-2.570991923	3.353146748	0.437743977
C 	-3.109893987	2.123772225	0.069117969
C 	-2.245277174	1.036325663	-0.056964204
C 	-0.858159040	1.169979729	0.165943430
H 	0.696922394	2.558280619	0.774733180
H 	-0.837532458	4.501232370	0.995469989
F 	-3.406369680	4.426310618	0.570639117
H 	-4.177777987	2.029432199	-0.106304805
H 	-2.648761658	0.065832512	-0.339434215
N 	1.917255600	-2.288738633	-0.753518079
C 	2.722745985	-3.511790165	-0.583680986
C 	0.997188494	-2.296120214	-1.898789817
H 	3.134174877	-3.542837387	0.424461811
H 	3.549266540	-3.531619347	-1.306034793
H 	2.075346932	-4.377691523	-0.755335573
H 	0.101291703	-2.890570759	-1.678713526
H 	1.511067110	-2.748195633	-2.755292886
H 	0.703914592	-1.279482953	-2.156948746
B 	3.648103082	-0.146648336	1.870602992
F 	2.540131094	-0.019148560	2.701862317
F 	3.927505882	1.027507336	1.167192933
F 	4.747117496	-0.711127864	2.471546221
