30

H 	2.451290080	0.352547842	1.097934551
C 	4.089362417	-0.187651609	-0.144328875
C 	2.877451385	-0.378881336	0.418250869
C 	1.928998876	-1.431907633	0.038860660
O 	0.677524218	-1.168583449	-0.059564758
H 	4.458025207	-0.910263295	-0.872593021
C 	4.573919139	2.094401389	0.813616417
C 	5.456062411	3.148187286	1.032305907
C 	6.753873637	3.051653009	0.528350780
C 	7.192587210	1.946366608	-0.195206169
C 	6.294274711	0.901204290	-0.411237085
C 	4.978708231	0.945186250	0.097681733
H 	3.554446989	2.177230912	1.179267814
H 	5.152025214	4.040385063	1.572635785
F 	7.620856453	4.085744313	0.743278162
H 	8.208318333	1.916818992	-0.579220042
H 	6.617408759	0.030788867	-0.979046358
N 	2.311397269	-2.700361294	-0.228667674
C 	1.323118834	-3.661222025	-0.751703847
C 	3.606152262	-3.277594098	0.156867173
H 	0.535178094	-3.125836693	-1.280004424
H 	0.874157452	-4.236413087	0.068609122
H 	1.836508486	-4.347858322	-1.432392950
H 	4.225328054	-3.477931715	-0.726830887
H 	3.423892644	-4.226735094	0.674509642
H 	4.137778153	-2.603899096	0.827475771
B 	0.022988764	0.327829623	0.023605047
F 	0.697184869	1.093341077	-0.922070379
F 	0.248231018	0.769985579	1.329460023
F 	-1.300491810	0.101558584	-0.267604788
