27

H 	0.727606658	-1.583465815	0.165759077
C 	-0.625834339	0.033780840	0.821744374
C 	0.586279604	-0.501843764	0.171490902
C 	1.628790623	0.197459702	-0.493918343
O 	2.596994165	-0.305082452	-1.078404828
H 	-0.594106301	1.128206754	0.789945057
H 	-1.530016594	-0.037755748	2.814340900
H 	0.240622616	-0.002391587	2.827822385
C 	-0.633755621	-0.411318074	2.310797913
H 	-0.607602713	-1.501229853	2.407555973
I 	1.544289143	2.409827351	-0.475341495
C 	-1.779690274	0.058357308	-1.453296141
C 	-1.946561007	-0.383374098	0.018534448
C 	-3.143426108	0.371234167	0.634517462
C 	-2.196455061	-1.903819972	0.076327703
H 	-2.348537420	-2.254325874	1.102956364
H 	-2.709339088	-0.120605576	-2.005933328
H 	-0.981725034	-0.503649720	-1.951486601
H 	-1.544311770	1.127089376	-1.523544324
H 	-4.044123718	0.174141349	0.040140941
H 	-2.972290808	1.454960846	0.635897167
H 	-3.353143711	0.052880087	1.661083006
H 	-3.103569985	-2.145334094	-0.490886174
H 	-1.372806207	-2.470183096	-0.370822371
Zn	2.914960109	-2.284656114	-1.914028159
Cl	5.026095429	-2.530925899	-1.991791580
Cl	0.908672723	-3.001158597	-2.226093737
