29

H 	1.623751990	2.430180590	-0.204157860
C 	3.423670500	1.137730160	-0.056491180
C 	1.956525880	1.397008000	-0.208942250
C 	0.909169940	0.412964730	-0.295720830
O 	-0.319550310	0.707536680	-0.147470340
H 	3.641941570	0.069912920	-0.194228100
H 	4.955095100	1.372973290	1.485076000
H 	3.362182580	0.858614830	2.111996270
C 	3.870980730	1.503507230	1.388367370
H 	3.613812990	2.538004390	1.633585280
N 	1.220059260	-0.893897310	-0.526099530
H 	0.460205520	-1.562602660	-0.585033800
H 	2.159607180	-1.194354640	-0.745906130
C 	4.558709410	3.240386810	-1.009697750
C 	5.240376860	3.913227750	-2.029082610
C 	5.540621400	3.223403660	-3.201629890
C 	5.179036190	1.891207030	-3.387919870
C 	4.494267680	1.238715700	-2.358041350
C 	4.185021740	1.894087180	-1.154358270
H 	4.326717050	3.777352850	-0.093712240
H 	5.538772640	4.952680320	-1.920529390
F 	6.215391060	3.874436450	-4.202370460
H 	5.431981210	1.383627610	-4.315038800
H 	4.209064680	0.196189470	-2.493983530
Ti	-1.431636970	2.286381770	0.765862440
Cl	-2.554840520	3.950851400	1.779090730
Cl	-0.915006270	3.480684060	-1.078763310
Cl	-3.147554490	0.851047220	0.686328440
Cl	0.129871310	2.121205720	2.419364680
