29

H 	1.667545719	1.636820328	1.405320578
C 	3.543847717	1.071491066	0.329491593
C 	2.062038408	1.225350524	0.483478142
C 	1.065630109	0.825389333	-0.481784025
O 	-0.174762833	1.044276910	-0.303243884
H 	3.762157154	-0.013136020	0.314458094
H 	5.368523513	1.518997951	1.443726832
H 	3.948313115	1.220812922	2.475734136
C 	4.290519733	1.680343459	1.541522663
H 	4.107826379	2.759091689	1.596899442
N 	1.439668458	0.162256833	-1.608175483
H 	0.719687942	-0.034386162	-2.294835078
H 	2.410015301	0.134726666	-1.899694173
C 	3.659860718	2.916843534	-1.426181397
C 	4.150178022	3.457055523	-2.616394701
C 	5.054233452	2.707249424	-3.365957843
C 	5.480499849	1.443282087	-2.969409434
C 	4.977350288	0.917700930	-1.773679849
C 	4.066930211	1.643773248	-0.990823592
H 	2.940111606	3.484417960	-0.840626426
H 	3.838306225	4.437573668	-2.965491616
F 	5.535615495	3.228500973	-4.535629518
H 	6.187724806	0.891787301	-3.582814221
H 	5.304232986	-0.068070402	-1.446493369
Ti	-1.343574956	2.339198272	0.917706530
Cl	-2.498567343	3.775144692	2.203169292
Cl	0.154159646	3.927920999	0.250773961
Cl	-3.043275058	1.765207076	-0.413139137
Cl	-0.796550751	0.953442427	2.612586202
