24

H 	0.308835660	-1.713227370	0.348450770
C 	-0.859331750	0.073256380	0.953616390
C 	0.305666580	-0.622079520	0.356973270
C 	1.443634670	0.022460960	-0.230051680
O 	2.419915670	-0.559287820	-0.730045280
H 	-0.691952700	1.152837170	0.944282960
H 	-2.099499020	0.106838300	2.737885100
H 	-0.387773630	-0.204924540	3.068992190
C 	-1.207067570	-0.411253120	2.373451000
H 	-1.408494800	-1.487467180	2.394751590
H 	0.884881320	0.226285520	0.057495300
C 	-4.292925490	-0.668393220	-1.596660790
C 	-3.821146320	0.638313540	-1.419969010
C 	-2.713407340	0.877583010	-0.597203810
C 	-2.077447530	-0.189854270	0.048869610
C 	-2.549226690	-1.496561020	-0.127822170
C 	-3.656965670	-1.735830490	-0.950587370
H 	-4.307799780	1.455145080	-1.914361670
H 	-2.352389320	1.877509950	-0.461994540
H 	-2.062573240	-2.313392560	0.366570490
H 	-4.017983700	-2.735757440	-1.085796640
H 	-5.140596970	-0.851488610	-2.226262720
I 	4.018711250	-2.639363960	-2.185083410
I 	5.494399570	-4.559274230	-3.528083610
