24

H 	-0.523311970	-2.747855130	-1.025615490
C 	-0.725965560	-0.888028470	0.214583610
C 	-0.094425300	-1.768367220	-0.817549720
C 	1.130629900	-1.450722390	-1.488380600
O 	1.757939830	-2.237025290	-2.219739630
H 	-0.109122340	0.014448680	0.302704970
H 	-1.140348400	-0.913959710	2.357468250
H 	0.305410370	-1.840437300	1.902050840
C 	-0.716100350	-1.584916590	1.603896470
H 	-1.311638480	-2.502417320	1.592229260
H 	1.529391590	-0.430228970	-1.298774990
C 	-4.762746230	0.492824710	-0.648744770
C 	-3.769922640	1.388137100	-0.254179380
C 	-2.473219580	0.934421220	-0.012558080
C 	-2.143362200	-0.420404130	-0.147154870
C 	-3.149508920	-1.308874490	-0.549810200
C 	-4.445060200	-0.856812770	-0.798200920
H 	-4.002588400	2.443877880	-0.131291380
H 	-1.710814420	1.646183760	0.298187240
H 	-2.933722080	-2.367471180	-0.668136240
H 	-5.210259900	-1.564674710	-1.109439190
H 	-5.774728200	0.843003350	-0.839020040
I 	4.963218750	-0.996984750	-0.686107910
I 	6.539717930	0.358358310	1.020998720
