20

H 	0.257794946	-1.738797977	0.648391861
C 	-0.849470312	-0.192276137	-0.332078701
C 	0.268488223	-0.783367277	0.126643238
C 	1.583997940	-0.155808123	-0.060272295
H 	-0.736312256	0.767731570	-0.847005727
O 	2.645181664	-0.630833452	0.325035917
H 	1.559853516	0.824593771	-0.598987620
C 	-3.097217734	0.392657831	0.528704309
C 	-2.274550171	-0.682677784	-0.234049347
C 	-2.390890409	-2.036868485	0.493087503
C 	-2.833028618	-0.815266109	-1.678135846
H 	-2.276173272	-1.570346072	-2.244703659
H 	-4.152651742	0.097049145	0.569503737
H 	-3.034862174	1.366737429	0.028674328
H 	-2.730944224	0.509851169	1.555021318
H 	-3.440951314	-2.348014765	0.537109397
H 	-2.015349348	-1.971632644	1.520816658
H 	-1.828736255	-2.819752108	-0.028970289
H 	-3.887567502	-1.115052500	-1.645701355
H 	-2.765557048	0.137272907	-2.217431137
