23

H 	-0.30294700	0.13330900	-0.37354700
C 	-0.18416000	-1.99894400	-0.10599700
C 	0.29653600	-0.73201300	-0.11162000
C 	1.66832700	-0.50775200	0.24996500
O 	2.25668800	0.59076100	0.28534600
H 	0.50917700	-2.79472000	0.17908800
C 	-1.42737800	-3.49078600	-1.61195600
C 	-1.56672700	-2.47639700	-0.44417300
C 	-2.52453700	-1.34230800	-0.84354700
C 	-2.11217000	-3.21737400	0.80720000
H 	-2.21950000	-2.53545600	1.65567000
H 	-2.40888300	-3.91228800	-1.84934500
H 	-0.75979500	-4.31827000	-1.35232700
H 	-1.03851800	-3.00690300	-2.51256700
H 	-3.51066600	-1.75388100	-1.07595200
H 	-2.17263500	-0.80752500	-1.73030900
H 	-2.65181800	-0.61516600	-0.03660800
H 	-3.09694400	-3.63817800	0.58249300
H 	-1.45598500	-4.03953600	1.10927000
H 	2.26853800	-1.39142700	0.52538700
Al	1.84372300	2.43033600	-0.10450400
F 	0.16699500	2.43550800	-0.29062100
F 	2.69815600	2.66307400	-1.52544300
