28

H 	  1.899066	  0.933285	  0.002805
C 	  0.000000	  0.000000	  0.000000
C 	  1.347940	 -0.000000	 -0.000000
C 	  2.165364	 -1.207231	 -0.000000
O 	  3.414842	 -1.137052	  0.020237
H 	 -0.531984	 -0.953624	 -0.001697
C 	 -0.115549	  2.538282	 -0.005802
C 	 -0.897905	  1.210294	  0.008025
C 	 -1.779340	  1.130136	  1.287192
C 	 -1.814525	  1.123557	 -1.244971
H 	 -2.386721	  0.187949	 -1.255931
H 	 -0.816121	  3.380564	 -0.002322
H 	  0.511169	  2.624827	 -0.900509
H 	  0.529075	  2.633041	  0.875182
H 	 -2.490152	  1.964829	  1.297570
H 	 -1.162861	  1.189887	  2.190954
H 	 -2.351353	  0.194949	  1.319256
H 	 -2.525808	  1.957838	 -1.240194
H 	 -1.224202	  1.178668	 -2.166454
C 	  1.543236	 -2.586415	 -0.025720
H 	  2.336329	 -3.336208	 -0.015547
H 	  0.929093	 -2.713868	 -0.925394
H 	  0.891212	 -2.730407	  0.844248
Ti	  4.999400	  0.400908	  0.094191
Cl	  6.528269	  2.034994	  0.171104
Cl	  6.397907	 -1.330371	  0.088469
Cl	  4.112705	  1.028378	 -1.883408
Cl	  4.013931	  0.938848	  2.051698
