70

C 	0.427233840	-0.379323930	1.191669160
C 	1.512672910	-1.400762800	1.181567740
C 	2.854603640	-1.208553330	1.673990210
O 	3.765694110	-2.052179680	1.603958260
H 	4.816578550	-5.445278770	6.360951590
H 	0.871933280	0.595986420	1.422735980
H 	1.320897770	-2.381275100	0.749732410
H 	3.495773740	-6.104145710	-2.106675050
H 	4.167694960	-4.598901330	-1.441640470
H 	5.329450910	-4.134325280	5.279120850
H 	4.741155710	-6.159546930	-0.833136940
C 	-0.213740730	-0.304166570	-0.218900890
H 	-0.718058510	-1.239115550	-0.479115950
H 	5.328436380	-5.811154780	4.702740330
H 	2.962958880	-2.165972630	4.507210000
H 	-0.934978790	0.517007930	-0.274544810
H 	0.559056200	-0.123882360	-0.974798130
N 	3.293032480	-4.968823040	1.108626290
C 	2.988076340	-5.445236680	2.377770540
N 	3.359815540	-4.575655130	3.388918530
C 	2.776993380	-5.632916210	-0.098997050
H 	3.501959250	-3.971513280	1.033866180
C 	3.344286560	-4.949360740	4.805539150
H 	3.875894190	-3.744021680	3.119051710
H 	2.589090250	-6.668296680	0.204621680
C 	4.789575600	-5.088901670	5.325842900
C 	3.857584480	-5.621312390	-1.191259020
H 	0.378622230	-6.047284550	1.055090770
H 	2.869655140	-5.936443220	4.832236890
C 	1.432831440	-5.029082750	-0.524147710
C 	1.303436200	-4.136400340	-1.599044730
C 	0.055272310	-3.597415910	-1.937648960
C 	-1.082906850	-3.943828340	-1.203629600
C 	-0.963642500	-4.826995840	-0.122723970
C 	0.281569010	-5.363518210	0.213969700
H 	2.175102330	-3.860947580	-2.187586110
H 	-0.025387920	-2.908980190	-2.777064200
H 	-2.054549860	-3.533280730	-1.472409120
H 	-1.843999840	-5.101839100	0.455548960
C 	2.431734020	-3.975167790	5.633492150
C 	2.400745130	-4.413336220	7.116469560
H 	1.660873230	-3.820610160	7.669381440
H 	3.370784470	-4.272266820	7.606056920
H 	2.120651570	-5.470902120	7.208864860
C 	0.997212210	-4.055424020	5.062661650
H 	0.603334740	-5.075810950	5.144673270
H 	0.325714930	-3.381251530	5.608499310
H 	0.979107270	-3.777063000	4.004545950
C 	2.942031880	-2.517931200	5.544910860
H 	3.950275760	-2.415533540	5.964391850
H 	2.279202140	-1.847221670	6.105353740
O 	2.449274980	-6.542985940	2.586503410
O 	3.056967430	0.025265860	2.247811800
C 	4.389675480	0.250290530	2.784898050
H 	5.143035980	0.142005570	1.998039750
H 	4.600236220	-0.464158300	3.587552250
H 	4.372407420	1.270690180	3.171803180
C 	-1.297513270	-2.027459240	2.213203450
C 	-0.637501180	-0.640386590	2.354009320
C 	-1.721770280	0.458609740	2.303180080
C 	0.089806910	-0.551008880	3.713682950
H 	0.575947410	0.423753510	3.840515800
H 	-2.032740050	-2.172618620	3.014776740
H 	-0.563116740	-2.836378650	2.284725920
H 	-1.820487370	-2.134840410	1.257359400
H 	-2.379135520	0.368695610	3.177585330
H 	-2.350363390	0.378306080	1.409680740
H 	-1.274266260	1.461034810	2.321406980
H 	-0.625518930	-0.687623850	4.534317980
H 	0.856319520	-1.324769730	3.809463570
