30

H 	2.036009150	1.735707640	-1.684581790
C 	3.522129030	0.859972690	-0.458129630
C 	2.285605240	0.875496430	-1.069765920
C 	1.163942110	0.041107780	-0.674467440
O 	-0.022039380	0.519558670	-0.623193630
H 	3.857046860	0.032919470	0.167441830
H 	2.569730640	2.818090790	1.088169710
H 	3.842486810	1.888605150	2.086881980
H 	2.136251800	1.200951810	1.890249850
C 	2.900344360	1.891406050	1.545495050
N 	1.330451340	-1.266618790	-0.313266750
C 	0.193510920	-1.997304820	0.273017420
C 	2.472279500	-2.097032260	-0.718799670
H 	-0.462916640	-1.298553250	0.792479040
H 	0.584848070	-2.742529550	0.974375330
H 	-0.386961790	-2.510259100	-0.506654390
H 	3.094455910	-1.557454300	-1.433564740
H 	2.095472350	-3.009831390	-1.198175740
H 	3.079757550	-2.390496890	0.148384990
O 	4.497947970	1.673862090	-0.939025210
C 	5.770778770	1.651205250	-0.228545880
C 	6.803868780	2.358460020	-1.091042200
H 	6.051653220	0.604524230	-0.037268190
H 	5.638302610	2.160380240	0.735283410
H 	6.933776450	1.842397090	-2.048859860
H 	7.768475430	2.374976320	-0.569269410
H 	6.498107270	3.391822260	-1.287907630
Zn	-0.663241620	2.379118230	-0.099706370
Cl	-2.407111950	2.050571960	1.132654940
Cl	0.624713070	3.977684330	-0.815464440
