29

H 	1.929252255	0.922372337	-0.121433690
C 	0.000000000	0.000000000	0.000000000
C 	1.374101002	-0.000000000	-0.000000000
C 	2.185097725	-1.188953119	-0.000000000
O 	3.430867221	-1.203099445	-0.173522490
H 	-0.513287735	-0.934388478	0.214117994
H 	-1.458793760	-0.351383689	-2.364385545
H 	-0.076884082	-1.602267709	-2.284590659
H 	0.296656510	0.166611850	-2.736020724
C 	-0.397097660	-0.568211961	-2.344797022
O 	1.520385681	-2.351160877	0.196391568
C 	2.327468275	-3.569291385	0.177501698
H 	3.082620676	-3.532472026	0.967145233
H 	2.819041986	-3.680596040	-0.793087515
H 	1.616148331	-4.377269990	0.351625833
C 	-2.177089188	1.107498233	0.420490690
C 	-3.003978853	2.229144780	0.469142395
C 	-2.466904991	3.460466169	0.101940145
C 	-1.142355382	3.604486319	-0.311368107
C 	-0.327844799	2.475545714	-0.348897407
C 	-0.827710733	1.208443529	0.023108715
H 	-2.579280470	0.135385909	0.698602010
H 	-4.042697262	2.161256126	0.780183641
F 	-3.268736036	4.566306595	0.138994179
H 	-0.770710006	4.582907560	-0.602685280
H 	0.697121978	2.577407983	-0.695132354
Zn	4.663398982	0.191942467	-1.104255457
Cl	6.674141151	-0.221219205	-0.488722195
Cl	3.411931779	1.455554434	-2.354682802
