29

H 	1.536187888	2.002588888	-1.089801815
C 	3.428971757	1.141214992	-0.577029575
C 	2.060266052	1.138843743	-0.698654547
C 	1.202978435	0.099071815	-0.193424416
O 	-0.052047323	0.169088368	-0.145886671
H 	3.918093089	0.221757724	-0.264377538
H 	4.682663130	1.988519528	1.779281461
H 	3.260362265	0.854807752	2.194625018
H 	2.926621037	2.618901403	1.695779396
C 	3.617643590	1.787779009	1.773498529
O 	1.832064272	-1.010455790	0.258613332
C 	0.975985223	-2.066501977	0.794781392
H 	0.287032603	-2.420276261	0.023201345
H 	0.405868329	-1.691794082	1.649554801
H 	1.664496314	-2.855736820	1.098402114
C 	5.676455514	1.907388973	-1.287576045
C 	6.550574515	2.864708370	-1.801054404
C 	6.038154571	4.118016783	-2.126756736
C 	4.692502899	4.442829311	-1.954374662
C 	3.831279953	3.473743399	-1.445935519
C 	4.305524511	2.186781695	-1.110340340
H 	6.058347250	0.923623363	-1.022114125
H 	7.606694172	2.655705264	-1.946726747
F 	6.885749373	5.067137765	-2.624693966
H 	4.340267759	5.438589963	-2.208707582
H 	2.787521628	3.729583591	-1.284920581
Zn	-1.294415883	1.838672074	-0.122414449
Cl	-3.266358038	1.174547384	-0.635298807
Cl	-0.092988674	3.553477864	0.462792927
