35

H 	2.014580826	0.682010812	-0.219418543
C 	0.000000000	0.000000000	0.000000000
C 	1.368686670	-0.161072567	-0.000000000
C 	2.065402891	-1.431219253	0.000000000
O 	3.154425142	-1.596247511	-0.673438839
H 	-0.635069273	-0.839776324	0.268305278
H 	0.286778165	-0.115870259	-2.696087827
H 	-1.533503567	-0.180094938	-2.264948460
H 	-0.471950278	-1.702199678	-2.114815283
C 	-0.545872071	-0.625082619	-2.226702974
N 	1.617194465	-2.519217450	0.679082174
C 	0.704369779	-2.446681449	1.826706795
C 	2.275179528	-3.820667895	0.476593240
H 	0.570595739	-1.410826541	2.137583901
H 	1.142019117	-3.011575783	2.658865031
H 	-0.272502551	-2.886845864	1.587125944
H 	1.531973802	-4.610164261	0.628358160
H 	3.097034107	-3.958734548	1.192252966
H 	2.679857599	-3.874615770	-0.533670031
O 	-2.667667911	4.996647408	0.041623928
H 	-3.589717976	4.897431136	0.339076449
C 	-2.053102918	3.764397865	0.041033438
C 	-0.713202733	3.713096085	-0.375927519
C 	-0.041083070	2.497234740	-0.399547343
C 	-0.679085053	1.300999333	-0.005629512
C 	-2.028021031	1.374025599	0.392815582
C 	-2.712149851	2.587731830	0.424360648
H 	-0.220488739	4.631542718	-0.683951983
H 	0.989541095	2.475304956	-0.743038799
H 	-2.547958041	0.463389285	0.685862242
H 	-3.753385675	2.622774650	0.743092137
B 	3.723026714	-0.577311437	-1.781138051
F 	4.786818252	-1.257970868	-2.330379094
F 	4.091970193	0.591387609	-1.108598908
F 	2.677892281	-0.351407591	-2.686461970
