35

H 	1.414486050	2.056107960	-0.824374822
C 	3.299054539	1.084534370	-0.548212703
C 	1.922076978	1.140503456	-0.541296775
C 	1.044482459	0.166437169	0.074908409
O 	-0.039546282	0.528725018	0.675202386
H 	3.795196827	0.147912961	-0.309239598
H 	3.066675991	2.423631360	1.800696973
H 	4.845655039	1.890902701	1.566463611
H 	3.566129482	0.677609699	2.163935481
C 	3.802190593	1.634072168	1.708283044
N 	1.308581976	-1.166231620	0.080276383
C 	2.192656090	-1.827506057	-0.887546807
C 	0.469754370	-2.067245673	0.887903336
H 	2.471032537	-1.133257435	-1.680049719
H 	1.654927996	-2.673890183	-1.332082846
H 	3.098981639	-2.211754260	-0.401387819
H 	1.083226123	-2.916229440	1.206605119
H 	-0.381368513	-2.439262210	0.301499270
H 	0.087295237	-1.532683324	1.756968752
O 	6.678063754	4.905120127	-3.011968203
H 	7.567273288	4.538046316	-3.163828056
C 	5.887330267	3.951820020	-2.410229990
C 	4.565700987	4.312376927	-2.101821850
C 	3.721091700	3.392903829	-1.492046546
C 	4.163949553	2.090021967	-1.176495101
C 	5.498210693	1.756121112	-1.479772249
C 	6.354170418	2.667986593	-2.094544111
H 	4.222989234	5.315998389	-2.339483336
H 	2.707704944	3.696826482	-1.244394028
H 	5.869374982	0.763032453	-1.231817971
H 	7.380624789	2.386467433	-2.327198766
B 	-0.422064391	2.042035856	1.065210358
F 	-1.560964914	1.901361746	1.826611576
F 	-0.630071008	2.731502291	-0.132977829
F 	0.667651937	2.555118797	1.780901736
