25

H 	1.919134907	0.931676118	0.107416940
C 	0.000000000	0.000000000	0.000000000
C 	1.372368809	0.000000000	0.000000000
C 	2.214683733	-1.151197767	0.000000000
O 	3.440275919	-1.162335234	0.150014991
H 	-0.514003254	-0.940852070	-0.180355904
H 	0.419488791	0.116042361	2.778747774
H 	-1.409167049	-0.200408295	2.530943658
H 	-0.182264791	-1.602263983	2.360156112
C 	-0.383128178	-0.542501783	2.468450785
Cl	1.415215543	-2.766438421	-0.215840080
C 	-2.503136029	3.464079637	-0.008582170
C 	-3.015624921	2.213664710	-0.374625627
C 	-2.189102331	1.091082828	-0.356350040
C 	-0.830224277	1.199925621	0.011236490
C 	-0.328398841	2.467105454	0.383940492
C 	-1.159505114	3.584219313	0.374191131
H 	-4.057410199	2.115735049	-0.670832119
H 	-2.586871583	0.117133007	-0.635276052
H 	0.702879563	2.570035500	0.710716463
H 	-0.763861493	4.552309725	0.672239950
H 	-3.147567167	4.340193427	-0.014530244
Zn	4.677797967	0.273315895	1.154539594
Cl	6.643047915	0.052259732	0.359173365
Cl	3.329741744	1.299489148	2.501357226
