25

H 	0.632897310	0.419657450	-0.456811870
C 	0.411600440	2.103238220	0.844501630
C 	-0.060676730	1.088833620	0.044248170
C 	-1.427980910	0.708221550	-0.106744120
O 	-1.850938630	-0.300837140	-0.682460840
H 	-0.311931750	2.795703450	1.268744390
H 	0.519500660	-0.039434230	2.638654310
H 	1.056515470	1.490888460	3.573870450
H 	-0.759247440	1.175060760	3.256698340
C 	0.279853150	0.924920890	3.072890060
Cl	-2.680026290	1.796856480	0.634240150
C 	4.498535940	3.287849080	1.284174600
C 	3.461047790	4.145757880	1.670060180
C 	2.133683860	3.741727540	1.525604640
C 	1.817781420	2.478139500	0.979100440
C 	2.875116700	1.620466740	0.599418870
C 	4.200024490	2.024215330	0.752943780
H 	3.688381500	5.124641340	2.086941770
H 	1.326263060	4.404345280	1.832588970
H 	2.659050110	0.626885380	0.214648830
H 	5.005526880	1.351924770	0.465775070
H 	5.534808570	3.597639710	1.403504810
Zn	-0.855187930	-2.172703630	-0.972764040
Cl	-1.752786980	-3.113706420	-2.663234030
Cl	0.651433630	-2.218067150	0.584493470
