25

H 	0.631639580	0.421961407	-0.439335273
C 	0.405823720	2.113493387	0.845329795
C 	-0.062966311	1.090294951	0.060029206
C 	-1.426877884	0.700303534	-0.089645931
O 	-1.841403219	-0.306200748	-0.672589000
H 	-0.315620614	2.805507038	1.272606514
H 	0.640313325	0.016286159	2.704795399
H 	0.945121168	1.602100855	3.652325876
H 	-0.801038810	1.085397934	3.223839785
C 	0.268776065	0.947436951	3.115984985
Cl	-2.684692875	1.767064543	0.668418113
C 	4.498396851	3.268985614	1.271116418
C 	3.469048106	4.141514473	1.644351891
C 	2.139053469	3.745802557	1.509481519
C 	1.812246871	2.477276911	0.982645388
C 	2.861556148	1.605012471	0.615784982
C 	4.188831138	1.999870650	0.761401544
H 	3.704658208	5.126146273	2.041382328
H 	1.337410568	4.420446988	1.804137085
H 	2.637172305	0.607813363	0.246788901
H 	4.987575828	1.315907360	0.484332676
H 	5.536977465	3.572083554	1.382400707
Zn	-0.824675540	-2.162096866	-1.024070278
Cl	-1.779723724	-3.077727412	-2.695352508
Cl	0.725642482	-2.222457090	0.484927910
