24

H 	-1.833495235	-1.082088573	0.026335944
C 	0.000000000	0.000000000	0.000000000
C 	-1.355098911	-0.106470754	0.000000000
C 	-2.268003030	1.016827453	0.000000000
O 	-3.516074684	0.839272712	-0.013204564
H 	0.451850930	0.992400135	-0.025722364
C 	2.327203857	-0.823959123	-0.043078009
C 	3.275608230	-1.843902160	-0.022410761
C 	2.824993190	-3.158501217	0.076995514
C 	1.468694619	-3.483711948	0.157847083
C 	0.533270989	-2.456419700	0.133091864
C 	0.943337233	-1.104144274	0.029531927
H 	2.657476395	0.209992782	-0.119007052
H 	4.340677423	-1.638399851	-0.079839290
F 	3.741882781	-4.166433842	0.100174244
H 	1.167724692	-4.524302230	0.240291196
H 	-0.522081134	-2.705129617	0.204167981
C 	-1.769884020	2.447701713	0.022900672
H 	-1.125834788	2.646753422	-0.842473829
H 	-1.176882047	2.634631514	0.926674569
H 	-2.625548989	3.125204604	0.001936228
Zn	-4.718000624	-0.872877194	-0.148291448
Cl	-6.524244026	-0.221946645	-1.105465897
Cl	-3.723640199	-2.621360819	0.678706091
