24

H 	2.390957410	0.837728400	-0.212729730
C 	4.234008760	-0.116288280	0.280067300
C 	2.892151640	-0.088629780	0.059078100
C 	2.029627830	-1.252145930	0.118024910
O 	0.792998000	-1.161516090	-0.114443470
H 	4.704159250	-1.067088420	0.536868510
C 	6.518199980	0.800368610	0.481513210
C 	7.441567350	1.843478470	0.428997630
C 	6.979795180	3.116519040	0.098629580
C 	5.635241550	3.374755000	-0.185800130
C 	4.725194340	2.323891290	-0.132000270
C 	5.146779650	1.013629820	0.206492080
H 	6.859578940	-0.200911970	0.737754390
H 	8.496075490	1.686038920	0.638322670
F 	7.873539420	4.148423370	0.048993510
H 	5.322095470	4.382701370	-0.444190640
H 	3.680869280	2.520632390	-0.360605250
C 	2.569441560	-2.628068760	0.459032150
H 	3.032084960	-2.625689240	1.454020590
H 	3.337693710	-2.933619200	-0.262530050
H 	1.748654780	-3.348127210	0.442928110
Zn	-0.499117790	0.427074300	-0.562020560
Cl	-2.446187250	-0.245036610	0.043411770
Cl	0.574387080	2.108711950	-1.429725560
