24

H 	2.408918260	0.819559545	-0.232435815
C 	4.242030722	-0.135456270	0.278404210
C 	2.903875456	-0.108615157	0.041235249
C 	2.036766943	-1.266567469	0.090854407
O 	0.799785176	-1.161398085	-0.128686953
H 	4.711420824	-1.081776410	0.550139475
C 	6.503899950	0.816493426	0.551133965
C 	7.412446088	1.871302801	0.505276729
C 	6.947439393	3.122394073	0.105719967
C 	5.615454133	3.350847280	-0.248496367
C 	4.719218610	2.290238827	-0.195287834
C 	5.144658125	1.000435585	0.208366263
H 	6.846228843	-0.169276132	0.859307646
H 	8.458010737	1.739970803	0.768806788
F 	7.825705433	4.163149428	0.054446157
H 	5.302903770	4.343740534	-0.559435782
H 	3.684287751	2.462357923	-0.478076933
C 	2.572562954	-2.649901092	0.399656706
H 	3.066782929	-2.663367816	1.378870312
H 	3.314715534	-2.951584760	-0.349741627
H 	1.745484814	-3.362328463	0.400753823
Zn	-0.456452415	0.477109120	-0.491306571
Cl	-2.378840965	-0.106560347	0.261130103
Cl	0.612493527	2.116064097	-1.440545069
