25

H 	-1.692002656	-1.323376920	-0.030942342
C 	0.000000000	0.000000000	0.000000000
C 	-1.344665268	-0.291401616	0.000000000
C 	-2.419541376	0.643521361	0.000000000
O 	-3.623429513	0.384379421	-0.019408900
H 	0.295719999	1.039181825	0.130711788
H 	0.048965895	-0.463529847	-2.754073216
H 	1.478002273	0.652537275	-2.320504071
H 	-0.248825801	1.357115874	-2.447726113
C 	0.409139277	0.497157808	-2.406435316
I 	-1.919828589	2.823584265	0.030423223
C 	3.178758936	-2.829583482	0.416669234
C 	1.882115207	-3.285796814	0.140337720
C 	0.833009784	-2.381320303	-0.004346680
C 	1.064112767	-0.993549608	0.125309149
C 	2.376504466	-0.548489478	0.396504760
C 	3.423163170	-1.456913784	0.544759620
H 	1.691611374	-4.351406753	0.036836560
H 	-0.165095091	-2.752221026	-0.221838944
H 	2.564011592	0.519243601	0.494504577
H 	4.427073282	-1.098197109	0.759602489
H 	3.993944156	-3.541068556	0.527107262
Zn	-4.786145223	-1.399713454	-0.449858288
Cl	-3.412218632	-3.062114068	-0.565976041
Cl	-6.783518893	-0.673887345	-0.599270100
