25

H 	1.507283960	2.487780390	-0.305345360
C 	3.241642420	1.241904940	-0.530240600
C 	1.928481750	1.487960860	-0.205790350
C 	0.985180320	0.544489940	0.300823750
O 	-0.193937360	0.755759290	0.586677800
H 	3.589637960	0.210785000	-0.500092180
H 	4.073249320	2.361461770	1.909933790
H 	5.368564070	1.134441860	1.365492150
H 	3.788726980	0.528878340	2.162216530
C 	4.364705620	1.334715230	1.722294660
I 	1.677412260	-1.558859280	0.628759170
C 	5.923734680	3.977523330	-2.434144360
C 	4.700307090	4.447325990	-1.933591130
C 	3.813571940	3.573787580	-1.307087840
C 	4.138255310	2.205262990	-1.165674930
C 	5.376293090	1.747700510	-1.670661910
C 	6.259435560	2.624103190	-2.300992550
H 	4.438405500	5.498128930	-2.036138300
H 	2.871183790	3.955075410	-0.922600730
H 	5.636983080	0.696016760	-1.563075880
H 	7.208238280	2.256477420	-2.685543250
H 	6.611791800	4.664633000	-2.922260300
Zn	-1.459238220	2.502718990	0.870029670
Cl	-0.221214550	4.215001690	0.419541760
Cl	-3.327793700	1.685173100	1.486137540
