27

H 	0.476531095	-1.587281229	-0.278803808
C 	-0.722598777	0.062892359	0.579831605
C 	0.012372742	-0.660271852	-0.621823765
C 	1.012513850	0.239144678	-1.235039598
O 	2.245624282	0.077688802	-1.230757648
H 	-1.276619820	0.912338964	0.158499815
H 	-0.747525863	-0.889382210	-1.382673979
H 	0.939276588	-0.199505716	1.985987741
C 	0.282121712	0.595385379	1.621984036
H 	0.918819998	1.381249674	1.194977044
H 	-0.259219969	1.023506248	2.471824246
H 	0.643774266	1.163775566	-1.713362497
C 	-3.618575472	-2.668159607	2.297174875
C 	-4.047019199	-1.519673855	1.624764377
C 	-3.108253996	-0.644168249	1.067923779
C 	-1.734237448	-0.900238591	1.180257916
C 	-1.312670162	-2.057696406	1.856312392
C 	-2.248668965	-2.934193637	2.410585260
H 	-5.109334963	-1.303423682	1.533331348
H 	-3.446851776	0.250358121	0.546650151
H 	-0.251146476	-2.276525930	1.952049418
H 	-1.908000184	-3.826307515	2.931606585
H 	-4.345594032	-3.351796321	2.729866864
Al	3.287442988	-1.410282317	-0.580483718
F 	2.861147847	-2.583876074	-1.700774210
F 	2.630810755	-1.671152538	0.950322907
F 	4.844111248	-0.811316070	-0.621143304
