34

H 	1.459101000	1.945611000	-0.948441000
C 	3.351733000	1.033593000	-0.570661000
C 	1.975141000	1.045347000	-0.624000000
C 	1.082387000	0.084147000	-0.002291000
O 	-0.002241000	0.505348000	0.558670000
H 	3.874795000	0.113990000	-0.325064000
H 	2.884207000	2.137271000	1.906490000
H 	4.725168000	2.035879000	1.568746000
H 	3.787248000	0.523701000	2.100481000
C 	3.772734000	1.541534000	1.721952000
N 	1.327490000	-1.244792000	0.048645000
C 	2.289131000	-1.931879000	-0.822612000
C 	0.458395000	-2.119104000	0.854772000
H 	2.600647000	-1.272337000	-1.632426000
H 	1.801059000	-2.814247000	-1.252415000
H 	3.169735000	-2.264230000	-0.257879000
H 	1.068599000	-2.929017000	1.267428000
H 	-0.338305000	-2.550392000	0.234291000
H 	0.004696000	-1.543611000	1.660744000
C 	3.709185000	3.384871000	-1.418098000
C 	4.529184000	4.351771000	-1.996188000
C 	5.841872000	4.010725000	-2.319690000
C 	6.364130000	2.743903000	-2.073703000
C 	5.532050000	1.788950000	-1.488489000
C 	4.192955000	2.084234000	-1.164512000
H 	2.692294000	3.653167000	-1.144915000
H 	4.168280000	5.357956000	-2.190195000
F 	6.648763000	4.957356000	-2.888288000
H 	7.394944000	2.521387000	-2.334728000
H 	5.925174000	0.794733000	-1.283910000
Al	-0.452334000	2.233506000	1.061855000
F 	-1.988936000	2.087264000	1.714365000
F 	-0.341067000	3.158048000	-0.353261000
F 	0.764980000	2.659813000	2.159633000
