34

H 	1.455543216	1.948524378	-0.939843605
C 	3.349228428	1.034755223	-0.570580620
C 	1.972579952	1.047299026	-0.619631110
C 	1.081593051	0.084908427	0.003147320
O 	0.001468097	0.506480710	0.571821250
H 	3.872103367	0.113979396	-0.328987642
H 	2.908943545	2.166675977	1.896137145
H 	4.747701956	1.994940195	1.572397726
H 	3.748499202	0.521981656	2.104285662
C 	3.776117376	1.537814336	1.721160609
N 	1.324516795	-1.244833794	0.045743306
C 	2.285961423	-1.927746416	-0.828911952
C 	0.460795799	-2.123995229	0.851947661
H 	2.590090503	-1.267714077	-1.641204606
H 	1.800522318	-2.813406418	-1.254758478
H 	3.171197226	-2.254736341	-0.268206642
H 	1.079440053	-2.916905111	1.285259405
H 	-0.317527674	-2.579243770	0.225348174
H 	-0.015493527	-1.545693789	1.642548657
C 	3.705499730	3.383312433	-1.427567563
C 	4.527542998	4.350155508	-2.002892545
C 	5.843033565	4.010838326	-2.316606444
C 	6.365176218	2.744792372	-2.066132344
C 	5.531945643	1.791042915	-1.480839410
C 	4.190479636	2.084917530	-1.165033772
H 	2.686603120	3.651086351	-1.161635326
H 	4.166112016	5.355177053	-2.201857329
F 	6.652144335	4.957603165	-2.881670706
H 	7.397778361	2.523127040	-2.320744140
H 	5.925555881	0.798152580	-1.270814939
Al	-0.450462342	2.236502812	1.066876445
F 	-1.978806933	2.087159787	1.737894119
F 	-0.359087691	3.148580084	-0.357556352
F 	0.776398358	2.678963663	2.147214047
