34

H 	1.534851130	1.817483130	0.939722360
C 	3.492661330	1.025595600	0.256413480
C 	2.014010800	0.961428210	0.469942300
C 	1.079146410	-0.002018500	-0.087494190
O 	-0.086454510	0.355627370	-0.444685690
H 	3.852333980	0.058862730	-0.115607310
H 	5.285672090	1.357242620	1.486246820
H 	3.962527090	0.550870380	2.341986140
C 	4.198066040	1.326498020	1.603412200
H 	3.867419310	2.285254200	2.017781590
N 	1.460026080	-1.312516740	-0.293496810
C 	0.554890170	-2.192494520	-1.043627130
C 	2.453050310	-2.002151530	0.539614620
H 	0.037674810	-1.614290920	-1.810562880
H 	-0.197925740	-2.649824800	-0.383838810
H 	1.149392930	-2.987728060	-1.507779710
H 	3.264426750	-2.415018850	-0.074547410
H 	1.966782870	-2.831094570	1.073619950
H 	2.870743150	-1.321343110	1.281333220
C 	3.490295910	3.503826140	-0.548553820
C 	3.882408490	2.054060080	-0.904335790
C 	3.157868210	1.624322090	-2.200790990
C 	5.407357900	1.975577040	-1.146924900
H 	5.727446930	0.943537010	-1.344686000
H 	3.777723770	4.175021770	-1.367390730
H 	4.001223040	3.852128390	0.356609030
H 	2.410154000	3.608439090	-0.405097410
H 	3.484950080	2.250287150	-3.040074090
H 	2.072140020	1.732180550	-2.112298780
H 	3.384503980	0.579338520	-2.451204080
H 	5.671999210	2.581280070	-2.022737190
H 	5.984249030	2.358156980	-0.297830790
I 	-0.632703790	2.879010470	-0.950757040
I 	-1.160846380	5.558712590	-1.580431720
