24

H 	  1.914116	  0.926152	  0.004930
C 	  0.000000	  0.000000	  0.000000
C 	  1.344119	  0.000000	  0.000000
C 	  2.198554	 -1.184467	 -0.000000
O 	  3.403272	 -1.198770	  0.021670
H 	 -0.512075	 -0.962736	 -0.001456
C 	 -0.134709	  2.542148	 -0.020271
C 	 -0.902230	  1.206390	  0.003516
C 	 -1.781340	  1.125271	  1.283508
C 	 -1.819883	  1.102211	 -1.248611
H 	 -2.383285	  0.161787	 -1.249836
H 	 -0.843601	  3.377803	 -0.018857
H 	  0.487141	  2.630962	 -0.918676
H 	  0.511832	  2.649809	  0.858373
H 	 -2.502652	  1.951221	  1.288269
H 	 -1.165560	  1.198590	  2.187016
H 	 -2.339825	  0.182726	  1.323195
H 	 -2.536934	  1.931715	 -1.250001
H 	 -1.230890	  1.152032	 -2.171335
Br	  1.253605	 -2.981159	 -0.045806
B 	  4.891710	  0.681696	  0.037413
F 	  4.371029	  1.183025	  1.162142
F 	  4.448184	  1.139422	 -1.137222
F 	  5.986095	 -0.068096	  0.088889
