29

H 	  0.403195	 -2.093893	 -0.039986
C 	  0.000000	  0.000000	  0.000000
C 	 -0.352342	 -1.316087	  0.000000
C 	 -1.694111	 -1.827726	  0.000000
O 	 -2.022223	 -3.007392	 -0.087555
H 	 -0.790103	  0.743100	  0.089738
H 	 -0.970344	 -0.639923	 -2.700173
H 	  0.571663	  0.375626	 -2.940941
H 	 -1.025087	  1.210211	 -2.438162
C 	 -0.451369	  0.303894	 -2.592438
Cl	 -3.042363	 -0.625750	  0.121245
C 	  1.585377	  0.612504	  1.754966
C 	  1.410066	  0.510343	  0.203620
C 	  1.571103	  1.925950	 -0.398038
C 	  2.483528	 -0.439227	 -0.368943
H 	  2.342574	 -0.593124	 -1.444264
H 	  2.578583	  1.020361	  1.977674
H 	  1.495358	 -0.373019	  2.222892
H 	  0.834656	  1.276918	  2.198097
H 	  2.545271	  2.341192	 -0.116243
H 	  0.793423	  2.604055	 -0.026026
H 	  1.514024	  1.906683	 -1.490282
H 	  3.478783	 -0.008617	 -0.211876
H 	  2.467682	 -1.418220	  0.121463
Ti	 -0.977478	 -4.974765	 -0.610020
Cl	  0.072760	 -6.860352	 -1.161550
Cl	 -3.034527	 -5.789092	 -0.440072
Cl	 -0.413021	 -3.817563	 -2.457671
Cl	  0.151199	 -4.576748	  1.289919
