29

H 	1.749603760	2.380089490	-0.442096010
C 	3.462088270	1.111493620	-0.472675840
C 	2.126065470	1.366053130	-0.351813240
C 	1.107676370	0.413480470	-0.009531360
O 	-0.074536910	0.658196300	0.216691380
H 	3.796877390	0.076548570	-0.420096510
H 	2.906171980	1.685999080	2.320005330
H 	4.766800750	1.542802600	2.263324950
H 	3.704360240	0.014126390	2.102700020
C 	3.791055840	1.094172480	2.118889850
Cl	1.611125960	-1.326194610	0.128010710
C 	4.416713790	1.970375850	-2.560137250
C 	4.474246730	2.108771240	-1.001949910
C 	5.904607820	1.740566260	-0.539941630
C 	4.144853480	3.564845230	-0.604458550
H 	4.100329490	3.674868550	0.484882850
H 	5.157627430	2.645145770	-3.006642500
H 	3.424303380	2.234721210	-2.939856760
H 	4.649207180	0.947176550	-2.878142980
H 	6.636144560	2.380866130	-1.046757540
H 	6.142750430	0.697472760	-0.781637270
H 	6.027105920	1.878399990	0.538478650
H 	4.922628070	4.236340280	-0.985779100
H 	3.188854750	3.897922720	-1.022677620
Ti	-1.404832320	2.516790320	0.414547370
Cl	-2.668472590	4.342365110	0.602620560
Cl	-2.929515750	1.008685590	0.992378150
Cl	0.153482390	3.114148720	1.930766440
Cl	-0.896295850	2.752378970	-1.760225400
