34

H 	-0.741219097	-1.976424065	-0.091636331
C 	0.000000000	0.000000000	0.000000000
C 	-1.002546590	-0.923465485	-0.000000000
C 	-2.416816825	-0.625884168	-0.000000000
O 	-3.273498352	-1.536155042	-0.178310366
H 	-0.228434891	1.058164828	0.103466202
H 	-0.121437873	-0.451955190	-2.827929726
H 	0.775864165	1.184102160	-2.619830297
H 	-1.085709730	1.099189600	-2.470838804
C 	-0.129331822	0.594594154	-2.547327759
C 	-3.045474709	1.044788080	1.788762828
C 	-2.934598251	0.773250142	0.267998920
H 	-2.065230119	0.982673780	2.274075749
H 	-3.710461021	0.313897159	2.260837280
H 	-3.454053373	2.046026933	1.962571423
H 	-2.278362459	1.519291419	-0.194750173
H 	-3.922054658	0.850455383	-0.198030995
C 	1.453683536	-0.385832138	0.123134638
C 	2.437864974	0.594819950	-0.487028736
C 	2.555035811	1.899230714	0.017685490
C 	3.436324916	2.813794974	-0.566017088
C 	4.223570741	2.430580802	-1.658263274
C 	4.123678455	1.128728632	-2.159221811
C 	3.236472739	0.217980546	-1.575351462
H 	1.662274950	-0.463856973	1.204847476
H 	1.603959669	-1.389906416	-0.289718401
H 	1.953905463	2.204353101	0.873501073
H 	3.516150873	3.821204110	-0.163102937
H 	4.915456054	3.138770372	-2.108497765
H 	4.734507848	0.820775902	-3.004987981
H 	3.153323745	-0.790199481	-1.977118857
Zn	-2.961319742	-3.449029570	-0.935221980
Cl	-4.085189042	-4.862360098	0.222995179
Cl	-1.599466537	-3.206944387	-2.611823802
