34

H 	1.667135143	2.127866192	-0.594952706
C 	3.304299017	0.797312971	-0.710614411
C 	2.010188432	1.109792473	-0.418172075
C 	1.058548677	0.229183053	0.220282124
O 	-0.062650146	0.657145524	0.612776981
H 	3.672738084	-0.214333948	-0.557566302
H 	3.767397890	2.081798721	1.809669893
H 	5.308469224	1.062590909	1.475821800
H 	3.753121313	0.246134557	2.115476297
C 	4.252774037	1.118250991	1.709414838
C 	0.966105448	-2.043467489	-0.880873048
C 	1.338379053	-1.250097782	0.396125846
H 	1.566164046	-1.717877680	-1.737720310
H 	-0.091389492	-1.899692517	-1.126425145
H 	1.141502676	-3.113001435	-0.722891590
H 	2.394597647	-1.413495992	0.639154713
H 	0.735387238	-1.597971797	1.240873872
C 	4.203716817	1.726433879	-1.488435959
C 	5.688404794	1.566874532	-1.218559334
C 	6.349284117	0.370005437	-1.535885331
C 	7.709285395	0.209790226	-1.255645110
C 	8.431339897	1.252657684	-0.663466437
C 	7.784399883	2.453887992	-0.356430017
C 	6.421773795	2.608238708	-0.633786546
H 	4.017289545	1.515070391	-2.556270808
H 	3.891378183	2.763992831	-1.323779643
H 	5.798554627	-0.444082290	-2.005817112
H 	8.207549157	-0.723831915	-1.507970468
H 	9.491406794	1.132244475	-0.452024524
H 	8.338361790	3.271234756	0.100010907
H 	5.920144507	3.540613995	-0.381195687
Zn	-0.645735603	2.635316663	0.889019505
Cl	-2.632880121	2.902271988	0.126101493
Cl	1.036934766	3.619374048	1.850525901
