67

C 	0.832312070	-0.548154490	1.773131230
C 	1.913485940	-1.567300290	1.571680380
C 	3.313640350	-1.313051690	1.599827790
O 	4.149208150	-2.260917860	1.452559760
H 	4.797596480	-4.398370640	6.380565640
H 	1.241715850	0.306918860	2.326266560
H 	1.609767120	-2.590898940	1.366389190
H 	3.124495410	-6.280960320	-1.976614010
H 	3.877894530	-4.782099800	-1.398792210
H 	5.050230440	-3.261365350	5.042248440
H 	4.417457230	-6.341297750	-0.749076260
C 	0.319022490	-0.005624880	0.400286970
H 	-0.111294570	-0.817883280	-0.192471280
H 	5.355901090	-4.992080890	4.805760450
H 	2.385304320	-1.877648270	4.163457600
H 	-0.453906460	0.753006790	0.571359440
H 	1.139391440	0.444396600	-0.170975150
N 	3.063738260	-5.016900800	1.187721170
C 	2.792447010	-5.324408990	2.490703330
N 	3.199025330	-4.369744530	3.374565680
C 	2.491024960	-5.713311140	0.023599250
H 	3.484546080	-4.094743570	1.021337540
C 	3.245282080	-4.496771700	4.838466690
H 	3.675487770	-3.563852600	2.964254600
H 	2.265037130	-6.727487140	0.366503740
C 	4.697575710	-4.268033750	5.298630430
C 	3.542076770	-5.781347980	-1.095444080
H 	-0.031246520	-6.514989050	0.626028120
H 	2.962595760	-5.532555430	5.054611500
C 	1.173797590	-5.060994390	-0.407754690
C 	1.147027500	-3.891827720	-1.186008490
C 	-0.068657760	-3.311200300	-1.562582870
C 	-1.279068400	-3.886026730	-1.157143700
C 	-1.262860300	-5.042589400	-0.369268110
C 	-0.045620580	-5.624389900	0.002297820
H 	2.078233560	-3.430464410	-1.508324350
H 	-0.070973800	-2.412603630	-2.176636970
H 	-2.224899280	-3.434240050	-1.449491510
H 	-2.198666000	-5.494651990	-0.045554180
C 	2.172652370	-3.577713150	5.529228390
C 	2.204306280	-3.822188180	7.056099630
H 	1.373448330	-3.290516830	7.536620120
H 	3.134164430	-3.466081860	7.514226090
H 	2.095197290	-4.890375260	7.284455770
C 	0.771541800	-3.956683730	4.999577720
H 	0.545006080	-5.007997610	5.206674850
H 	0.006476560	-3.332168510	5.474160470
H 	0.698121450	-3.807524770	3.919359800
C 	2.435197200	-2.083680120	5.238862540
H 	3.413168600	-1.756931160	5.612417830
H 	1.666915270	-1.467535120	5.721136040
S 	2.022486780	-6.767562650	2.970717390
C 	3.834964490	0.098839560	1.840625040
H 	3.621656900	0.410799340	2.872706980
H 	3.357880220	0.828730880	1.174881200
H 	4.916401690	0.112493430	1.684795190
C 	-2.451818960	-2.166819230	4.112530660
C 	-2.076584680	-2.778389210	2.910559020
C 	-1.020248540	-2.261193280	2.157562860
C 	-0.319464390	-1.126162730	2.595176220
C 	-0.697064980	-0.523411020	3.802660870
C 	-1.759152770	-1.035669730	4.556679890
H 	-2.600475040	-3.665283910	2.560385520
H 	-0.742909380	-2.752468280	1.229040510
H 	-0.155042350	0.352366280	4.157181950
H 	-2.039115920	-0.555169820	5.492379910
H 	-3.271529160	-2.572930950	4.701524890
