67

C 	0.797747920	-0.550899693	1.731169535
C 	1.891652447	-1.554374210	1.536546560
C 	3.287575835	-1.301689465	1.628373491
O 	4.126297354	-2.245972468	1.480447053
H 	4.827764668	-4.481630328	6.365702628
H 	1.191582037	0.313328707	2.279574572
H 	1.600323282	-2.571198558	1.285648588
H 	3.123781811	-6.311424245	-1.931168523
H 	3.894593180	-4.817590553	-1.363963191
H 	5.101759251	-3.342837029	5.033116139
H 	4.380435018	-6.373713980	-0.667707254
C 	0.276457531	-0.028739057	0.355348014
H 	-0.133797638	-0.852673217	-0.235051830
H 	5.330339780	-5.081871904	4.775474845
H 	2.422425975	-1.861981659	4.195785390
H 	-0.512500534	0.714451165	0.518948486
H 	1.089755834	0.434878858	-0.214807772
N 	3.001506265	-4.976319268	1.201451240
C 	2.746979096	-5.293344938	2.503575696
N 	3.177971219	-4.355427452	3.392065378
C 	2.450331693	-5.688801783	0.039243663
H 	3.437155209	-4.061831216	1.034620337
C 	3.245068052	-4.501208683	4.852504274
H 	3.663714573	-3.554305608	2.985282715
H 	2.201274907	-6.690980232	0.400469282
C 	4.712724556	-4.336200471	5.287643657
C 	3.528044634	-5.802099074	-1.049595146
H 	-0.088191434	-6.430259260	0.628820503
H 	2.927804507	-5.527905046	5.062075809
C 	1.152983146	-5.032425748	-0.437951410
C 	1.154823041	-3.893859766	-1.259705038
C 	-0.046406878	-3.310492076	-1.675499830
C 	-1.270521785	-3.853925395	-1.269777267
C 	-1.282903017	-4.980541073	-0.440235904
C 	-0.080386150	-5.563277266	-0.027123443
H 	2.096895985	-3.458886482	-1.585504734
H 	-0.026328835	-2.435466562	-2.321872428
H 	-2.204888596	-3.401106469	-1.594047115
H 	-2.229521602	-5.407589043	-0.115417555
C 	2.221782672	-3.552507849	5.573564723
C 	2.298322777	-3.789997611	7.099218982
H 	1.493780314	-3.240673862	7.603158229
H 	3.248791112	-3.449513278	7.524609440
H 	2.176840648	-4.854447960	7.337921559
C 	0.796176759	-3.898583222	5.091578267
H 	0.551531363	-4.943981672	5.308293760
H 	0.061463729	-3.256629038	5.589339288
H 	0.690887062	-3.749865061	4.014015503
C 	2.510751070	-2.066869385	5.268209705
H 	3.510839277	-1.765245255	5.601229849
H 	1.779270665	-1.430193938	5.779709636
S 	1.962456616	-6.730319763	2.978738493
C 	3.802471528	0.096992422	1.941228791
H 	3.569004079	0.361462840	2.981833586
H 	3.340381923	0.856761719	1.299548474
H 	4.886748047	0.115331437	1.809160335
C 	-2.439088878	-2.231955484	4.090750158
C 	-2.062245063	-2.834216817	2.884893388
C 	-1.021417058	-2.296362182	2.125609490
C 	-0.338621590	-1.149822437	2.560169338
C 	-0.716048530	-0.557939430	3.772935465
C 	-1.763130696	-1.090936567	4.532906950
H 	-2.572151732	-3.729731343	2.536963054
H 	-0.742013794	-2.780530745	1.194723586
H 	-0.186309535	0.325256782	4.126485574
H 	-2.044084977	-0.618814047	5.472122178
H 	-3.246405803	-2.654172727	4.684965590
