28

H 	1.592024431	1.933147498	-1.080149152
C 	3.438899525	1.097833308	-0.435078809
C 	2.075125459	1.087839462	-0.600044571
C 	1.188289090	0.097019960	-0.055594687
O 	-0.065059703	0.278185236	-0.044151390
H 	3.928582059	0.217705497	-0.024111840
H 	2.808806851	2.784116524	1.668826101
H 	4.612408369	2.307245934	1.851072997
H 	3.272148992	1.150779027	2.437770592
C 	3.563743606	2.037066186	1.884781002
C 	1.706679620	-1.183595494	0.562294331
H 	1.993027369	-0.986728329	1.605207787
H 	2.583338632	-1.577166296	0.039360558
H 	0.907100775	-1.928054067	0.565994165
C 	5.708854323	1.805381086	-1.133127738
C 	6.592530454	2.732463392	-1.686982229
C 	6.132571949	3.985201543	-2.105791531
C 	4.775568543	4.273613693	-1.954049431
C 	3.870162866	3.373196978	-1.413403819
C 	4.337359644	2.107361547	-0.999869775
H 	6.074730783	0.835003947	-0.804984205
H 	7.645881381	2.484740260	-1.792067445
H 	6.798770887	4.729346728	-2.533088355
F 	4.322981752	5.501275769	-2.347871080
H 	2.832721071	3.670016271	-1.289194107
Zn	-1.084519038	2.074455794	-0.246132280
Cl	0.155221003	3.614843811	0.675248635
Cl	-2.946711835	1.744792647	-1.256176034
