24

C 	0.698972528	-0.304427646	0.977437417
C 	1.114998487	-0.252379996	-0.323231187
C 	-1.157843079	-0.165943757	-1.369091906
H 	0.654226819	-1.240086332	1.532466274
C 	0.248778169	0.888314850	1.679872966
H 	-1.501935160	-1.121174705	-0.991560412
H 	1.214222716	0.737048368	-0.774524090
H 	-0.914044923	-0.079731089	-2.421653491
H 	-1.463905509	0.728447155	-0.839310586
O 	-0.150727564	0.913865958	2.843355741
H 	0.290732935	1.829726004	1.075823644
C 	3.318873846	-1.326384762	-0.545516058
C 	1.844394230	-1.372022531	-1.055111080
C 	1.851682586	-1.127717486	-2.581079066
C 	1.249312569	-2.764649880	-0.753836187
H 	0.208038335	-2.828224303	-1.087349952
H 	3.915189815	-2.084754606	-1.067827613
H 	3.364297330	-1.522194193	0.530828263
H 	3.771723994	-0.345608799	-0.733726248
H 	2.513160465	-1.848576730	-3.075853757
H 	2.215450158	-0.119740119	-2.816651769
H 	0.851866486	-1.240233381	-3.010716424
H 	1.823264639	-3.536180828	-1.280528562
H 	1.282231359	-2.999295971	0.315304494
