24

C 	 -0.292236	  0.311472	  1.110756
C 	  0.123790	  0.363520	 -0.189912
C 	 -2.149052	  0.449956	 -1.235773
H 	 -0.336982	 -0.624187	  1.665785
C 	 -0.742431	  1.504215	  1.813192
H 	 -2.493144	 -0.505275	 -0.858241
H 	  0.223014	  1.352948	 -0.641205
H 	 -1.905254	  0.536169	 -2.288334
H 	 -2.455114	  1.344347	 -0.705992
O 	 -1.141936	  1.529766	  2.976675
H 	 -0.700476	  2.445626	  1.209143
C 	  2.327665	 -0.710485	 -0.412197
C 	  0.853186	 -0.756123	 -0.921792
C 	  0.860474	 -0.511818	 -2.447760
C 	  0.258104	 -2.148750	 -0.620517
H 	 -0.783170	 -2.212324	 -0.954031
H 	  2.923981	 -1.468855	 -0.934509
H 	  2.373089	 -0.906294	  0.664147
H 	  2.780515	  0.270291	 -0.600407
H 	  1.521952	 -1.232677	 -2.942535
H 	  1.224241	  0.496160	 -2.683333
H 	 -0.139342	 -0.624334	 -2.877397
H 	  0.832056	 -2.920281	 -1.147210
H 	  0.291023	 -2.383396	  0.448623
