24

C 	0.655707180	-0.345745640	0.980480560
C 	1.117023170	-0.265245640	-0.305910640
C 	-1.107146790	-0.070204160	-1.414097320
H 	0.565555810	-1.298533800	1.499816220
C 	0.200456370	0.831874180	1.706305190
H 	-1.538459300	-0.978686590	-1.010364420
H 	1.264247080	0.733963380	-0.722787190
H 	-0.843963380	-0.043616670	-2.465286940
H 	-1.350928010	0.865788950	-0.924336300
O 	-0.255345930	0.823211490	2.850338580
H 	0.291868400	1.794318030	1.141230090
C 	3.336147260	-1.292681800	-0.587841450
C 	1.845500120	-1.381991160	-1.045751830
C 	1.802906920	-1.170516000	-2.577822090
C 	1.288979340	-2.780460200	-0.700430990
H 	0.225471540	-2.854389560	-0.955504350
H 	3.925971850	-2.064194600	-1.098987880
H 	3.421374130	-1.442500150	0.493912950
H 	3.766637370	-0.314089190	-0.834115620
H 	2.505198930	-1.854511670	-3.069601960
H 	2.086124530	-0.144614540	-2.845368350
H 	0.805367430	-1.368584460	-2.982075670
H 	1.829844330	-3.547076790	-1.268070240
H 	1.404422880	-3.013438190	0.363790060
