31

H 	1.589847270	2.204201153	0.527227894
C 	3.559603980	1.258959912	0.211176425
C 	2.075221205	1.259848272	0.310202397
C 	1.189087052	0.133669523	0.180455385
O 	-0.083360444	0.223414228	0.239452763
H 	3.943530156	0.229456169	0.156673365
H 	5.234522968	1.878171677	1.487431031
H 	3.799300301	1.350835747	2.383294825
C 	4.141041569	1.900673784	1.500052654
H 	3.813092050	2.939307128	1.607233825
N 	1.707449025	-1.110737125	-0.005973056
H 	2.703074239	-1.276505181	-0.042446368
H 	1.066831297	-1.890018859	-0.097986666
C 	3.460931811	1.175253300	-2.331274137
C 	4.057721867	1.952302986	-1.136119351
C 	5.597286263	1.868030857	-1.205201428
C 	3.612882838	3.428203020	-1.212580488
H 	4.010721818	4.017538215	-0.379273441
H 	3.825855478	1.597197680	-3.274891003
H 	2.367375021	1.229795516	-2.341380003
H 	3.755633330	0.117626774	-2.305177085
H 	5.941279412	2.226240756	-2.182997658
H 	5.947753415	0.834234951	-1.086121060
H 	6.080770337	2.485193581	-0.441014837
H 	3.989180618	3.875712823	-2.140216721
H 	2.522615411	3.524217969	-1.219839998
Sn	-1.510501689	2.022000121	0.139171970
Cl	-0.536780272	2.654358731	2.228247251
Cl	-3.107098988	0.278142465	0.083069649
Cl	-3.043508159	3.861623973	-0.007523519
Cl	-0.286230331	2.566112226	-1.848928876
