30

H 	2.438637615	0.702985893	0.301084566
C 	4.332749391	-0.180723117	-0.067592996
C 	2.983834594	-0.214180793	0.112411253
C 	2.185557002	-1.417113376	0.070969605
O 	0.938916641	-1.394291545	0.259952636
H 	4.857969538	-1.118153070	-0.251079321
O 	7.696162305	4.339347092	0.022583409
H 	8.628015090	4.091597397	-0.118654723
C 	6.910446343	3.217477953	-0.005823696
C 	5.527084821	3.399022015	0.182114178
C 	4.679925451	2.304119231	0.164667788
C 	5.178817753	0.992485788	-0.041156155
C 	6.571788417	0.838335942	-0.228784037
C 	7.431768683	1.930415313	-0.212041823
H 	5.144847229	4.404102780	0.339118215
H 	3.615456820	2.463496193	0.310592368
H 	6.978489934	-0.158285097	-0.389341602
H 	8.502214201	1.791382833	-0.357986001
C 	1.818011793	-3.942385981	-0.208250576
C 	2.814812924	-2.777520267	-0.208749848
H 	1.044687238	-3.800066114	-0.969237920
H 	1.314656142	-4.030728603	0.759382004
H 	2.343895846	-4.880775453	-0.415594019
H 	3.332584173	-2.712717135	-1.176677722
H 	3.601798366	-2.942619901	0.541132616
Sn	-0.605818930	0.289872402	0.778529117
Cl	0.779079150	0.620469223	2.696389472
Cl	-2.052432939	-1.580621726	0.730933190
Cl	-2.234867306	1.966188291	1.312075355
Cl	0.111488465	1.247075490	-1.289732413
