26

H 	-0.047386398	-2.125777204	-0.001910602
C 	0.000000000	0.000000000	0.000000000
C 	-0.621555165	-1.206157174	-0.000000000
C 	-2.063228100	-1.377411050	0.000000000
O 	-2.575820104	-2.521856515	0.004488432
H 	-0.607997334	0.904576728	0.005576966
C 	1.910451570	1.562865491	0.015329186
C 	3.278840192	1.835678965	0.010529508
C 	4.206379135	0.789940928	-0.016837489
C 	3.725297049	-0.521283464	-0.039379903
C 	2.374699667	-0.825925454	-0.034753512
C 	1.436974453	0.231868298	-0.006404117
H 	1.193971522	2.380800561	0.036185313
H 	3.629443928	2.864476959	0.028478619
H 	5.277518676	0.971440918	-0.021603155
F 	4.629114258	-1.544661612	-0.067535873
H 	2.066723776	-1.866564701	-0.054824637
C 	-3.003390920	-0.190648968	-0.007639789
H 	-2.849612778	0.415493007	-0.909082369
H 	-2.822878480	0.452933413	0.861926575
H 	-4.032924363	-0.552375922	0.014815437
Ti	-1.941571380	-4.633992793	0.049943551
Cl	-1.211459105	-6.750674135	0.100355373
Cl	-1.004172504	-4.034586850	2.012927650
Cl	-4.125062720	-5.070711372	0.024031854
Cl	-0.942376712	-4.108089224	-1.903952441
