26

H 	  2.039463	  0.933808	  0.114302
C 	  0.000000	  0.000000	  0.000000
C 	  1.491540	 -0.000000	  0.000000
C 	  2.298525	 -1.160780	  0.000000
O 	  3.542766	 -1.236831	  0.047026
H 	 -0.379367	 -0.941177	 -0.409412
H 	 -1.693271	  1.193712	 -0.653127
H 	 -0.375612	  1.087917	 -1.844669
C 	 -0.605296	  1.181432	 -0.777619
H 	 -0.207598	  2.141106	 -0.431918
F 	  1.643444	 -2.351466	 -0.079652
C 	 -0.827072	 -0.026886	  4.269895
C 	 -0.980648	 -1.196600	  3.512567
C 	 -0.704556	 -1.185835	  2.145556
C 	 -0.302331	  0.004185	  1.511013
C 	 -0.126066	  1.169649	  2.283895
C 	 -0.398197	  1.154355	  3.651713
H 	 -1.313095	 -2.115592	  3.989574
H 	 -0.814383	 -2.095682	  1.559915
H 	  0.217205	  2.088281	  1.816035
H 	 -0.267931	  2.060955	  4.237771
H 	 -1.031898	 -0.039243	  5.337776
Al	  4.941865	  0.055234	  0.152214
F 	  4.081752	  1.483754	  0.436449
F 	  5.625835	 -0.038601	 -1.371371
F 	  5.845372	 -0.488318	  1.448141
