26

H 	0.574350890	-1.712916020	0.274419280
C 	-0.769603350	-0.105444920	1.079458760
C 	0.392292610	-0.639290690	0.308150240
C 	1.239246990	0.125638490	-0.526416030
O 	2.198737170	-0.273613480	-1.218481660
H 	-0.645523900	0.966749150	1.263152000
H 	-1.919339720	-0.488519220	2.885655690
H 	-0.158579170	-0.643651410	3.097864290
C 	-0.993559800	-0.838434840	2.415601300
H 	-1.065700870	-1.922349650	2.275975450
F 	0.999409180	1.468439360	-0.571463180
C 	-3.935658080	-0.560258850	-1.869180100
C 	-3.355359230	0.696146060	-1.641302110
C 	-2.336504090	0.834909760	-0.698913480
C 	-1.905481740	-0.276227300	0.051477500
C 	-2.477252730	-1.540399990	-0.200527730
C 	-3.493996430	-1.676238040	-1.146164180
H 	-3.695932770	1.564256000	-2.201509800
H 	-1.878020750	1.806713020	-0.528502080
H 	-2.133800270	-2.414388940	0.346700350
H 	-3.937051330	-2.653287640	-1.326046100
H 	-4.721979680	-0.669605630	-2.612779630
Al	2.988119440	-1.989611550	-1.513374840
F 	1.864020120	-3.030160150	-0.791389580
F 	4.429791330	-1.854718860	-0.673382270
F 	3.055703780	-2.084730760	-3.181894260
