26

H 	0.575310334	-1.725840683	0.293318022
C 	-0.766609939	-0.101819274	1.071954558
C 	0.397930403	-0.652006321	0.319737595
C 	1.254962299	0.107607974	-0.509188803
O 	2.213383245	-0.290796451	-1.201166223
H 	-0.635814662	0.971205442	1.241842561
H 	-1.934466166	-0.443544898	2.871405741
H 	-0.177885957	-0.612556985	3.101733211
C 	-1.008734690	-0.810627049	2.415763813
H 	-1.091025142	-1.895462840	2.293258594
F 	1.023581556	1.448528491	-0.549243060
C 	-3.941045397	-0.563026958	-1.865225181
C 	-3.382806399	0.699304363	-1.619767524
C 	-2.358104263	0.840826002	-0.684342818
C 	-1.900178638	-0.273948422	0.042404129
C 	-2.449102905	-1.543658876	-0.228224308
C 	-3.470305461	-1.682665386	-1.167924307
H 	-3.745755629	1.570651547	-2.159791483
H 	-1.918405691	1.818526099	-0.500965128
H 	-2.083059711	-2.420364474	0.299045161
H 	-3.893657776	-2.665024452	-1.363116806
H 	-4.732277058	-0.673987786	-2.602866716
Al	2.990690159	-2.003233428	-1.519487320
F 	1.871149515	-3.039760152	-0.789078772
F 	4.447219414	-1.887895513	-0.705146676
F 	3.033336155	-2.081426071	-3.187800431
