27

H 	0.366034584	-3.502816980	-0.463288583
C 	-1.739640599	-0.232302105	0.532595857
C 	0.403804162	-1.471082832	-0.131496914
C 	2.875565895	-0.246795511	-0.430959696
O 	4.858191390	-1.285432868	-1.026381520
H 	-1.688222398	1.697087198	-0.199280709
H 	-2.204893665	-2.169314393	5.693392739
H 	-3.977806691	0.864189558	5.405402918
H 	-0.467038820	0.898497706	5.718107786
C 	-2.195813115	-0.145038748	5.391341012
H 	2.867499429	1.745201004	-0.083977029
C 	-8.890057949	-2.694103697	-2.645848690
C 	-7.540442366	-4.294786289	-1.027144194
C 	-5.233589359	-3.500564899	-0.001720917
C 	-4.276351954	-1.105660917	-0.595002153
C 	-5.625967499	0.495021695	-2.213706648
C 	-7.932820506	-0.299199695	-3.239129907
H 	-8.272946037	-6.127430855	-0.573149531
H 	-4.200827462	-4.725450035	1.236955044
H 	-4.893463847	2.327666242	-2.667701312
H 	-8.965582422	0.925685422	-4.477805868
H 	-10.655323517	-3.301863126	-3.430529986
Ti	12.735865758	4.256067256	-2.128325326
Cl	9.413788722	2.029982505	-1.654185067
Cl	14.768783479	4.390354539	1.345242095
Cl	11.703837509	7.990892300	-3.224891652
Cl	15.057053301	2.613039680	-4.979466643
