27

H 	-4.430549770	-6.987836993	-0.370957981
C 	-0.582721976	-6.090856057	0.612732547
C 	-2.591787197	-7.704402015	0.202030223
C 	-2.426851863	-10.428270504	0.521419336
O 	-4.157520193	-11.919786813	0.101590089
H 	1.278215645	-6.950429014	0.809047180
H 	-1.975858802	-4.347331428	5.276215477
H 	1.498548281	-4.740585381	5.215728046
H 	-0.566435296	-7.529827226	5.726414266
C 	-0.362289373	-5.592933991	5.092755516
H 	-0.565114094	-11.124563754	1.234556187
C 	-0.488830971	1.789636402	-1.363779458
C 	-2.753517442	0.630432043	-0.667468520
C 	-2.800271742	-1.912397849	-0.015059322
C 	-0.579034629	-3.373778525	-0.037284637
C 	1.688862675	-2.173158814	-0.732112669
C 	1.735889039	0.378906907	-1.392094359
H 	-4.494576904	1.722244177	-0.627480914
H 	-4.580165397	-2.762396849	0.551123828
H 	3.439386679	-3.250660581	-0.762455472
H 	3.513281452	1.264928678	-1.917183222
H 	-0.470611328	3.782256905	-1.876994737
Ti	1.396519492	16.491266706	-5.084262539
Cl	2.659155234	12.580521634	-4.622963347
Cl	0.298375321	18.048315863	-1.424636898
Cl	-1.843943238	16.574606652	-7.639178137
Cl	4.451482436	18.757941981	-6.680655359
