27

H 	-2.344545970	-3.697804090	-0.196302510
C 	-0.308363190	-3.223142220	0.324244100
C 	-1.371514720	-4.076993970	0.106909790
C 	-1.284234700	-5.518403100	0.275923230
O 	-2.200064940	-6.307679540	0.053759160
H 	0.676402590	-3.678008640	0.428129330
H 	-1.045579450	-2.300508720	2.792052990
H 	0.792997600	-2.508609750	2.760044420
H 	-0.299744650	-3.984612970	3.030287930
C 	-0.191715280	-2.959653210	2.694970160
H 	-0.299045500	-5.886865620	0.653299000
C 	-0.258678210	0.947034800	-0.721681010
C 	-1.457098680	0.333610270	-0.353209130
C 	-1.481839990	-1.011997360	-0.007969050
C 	-0.306411930	-1.785326710	-0.019730180
C 	0.893707640	-1.149986120	-0.387417340
C 	0.918592920	0.200508900	-0.736664610
H 	-2.378427670	0.911372370	-0.332048600
H 	-2.423719150	-1.461797460	0.291642170
H 	1.820045050	-1.720175500	-0.403474060
H 	1.859148480	0.669371430	-1.014529670
H 	-0.249036790	2.001484160	-0.993262840
Ti	0.739006290	8.726802520	-2.690475870
Cl	1.407164350	6.657325350	-2.446366850
Cl	0.157893420	9.550757450	-0.753885380
Cl	-0.975772740	8.770904120	-4.042478980
Cl	2.355623060	9.926275420	-3.535250570
