27

H 	-2.344545967	-3.697804089	-0.196302510
C 	-0.308363188	-3.223142217	0.324244099
C 	-1.371514717	-4.076993966	0.106909787
C 	-1.284234703	-5.518403101	0.275923227
O 	-2.200064937	-6.307679546	0.053759157
H 	0.676402595	-3.678008640	0.428129332
H 	-1.045579447	-2.300508723	2.792052986
H 	0.792997598	-2.508609750	2.760044423
H 	-0.299744654	-3.984612968	3.030287932
C 	-0.191715282	-2.959653206	2.694970156
H 	-0.299045498	-5.886865620	0.653298996
C 	-0.258678215	0.947034796	-0.721681008
C 	-1.457098684	0.333610274	-0.353209134
C 	-1.481839988	-1.011997364	-0.007969047
C 	-0.306411927	-1.785326708	-0.019730180
C 	0.893707638	-1.149986122	-0.387417340
C 	0.918592917	0.200508898	-0.736664614
H 	-2.378427667	0.911372365	-0.332048595
H 	-2.423719153	-1.461797456	0.291642172
H 	1.820045046	-1.720175502	-0.403474057
H 	1.859148477	0.669371428	-1.014529667
H 	-0.249036794	2.001484163	-0.993262838
Ti	0.739006286	8.726802524	-2.690475874
Cl	1.407164349	6.657325347	-2.446366854
Cl	0.157893425	9.550757449	-0.753885376
Cl	-0.975772740	8.770904120	-4.042478981
Cl	2.355623058	9.926275424	-3.535250571
