27

H 	-1.016855715	-1.871684593	-0.022126097
C 	0.000000000	0.000000000	0.000000000
C 	-1.089611272	-0.788256662	0.000000000
C 	-2.464247522	-0.287296838	0.000000000
O 	-3.476628656	-1.017993277	0.021758749
H 	-0.137941711	1.082578234	0.008058523
C 	1.575023539	-1.996198445	-0.000894756
C 	1.436113837	-0.461304165	-0.019445386
C 	2.144845178	0.147915528	1.222625462
C 	2.091637598	0.110766175	-1.307822691
H 	2.007883554	1.203588337	-1.346068797
H 	2.635069063	-2.272876429	-0.023828468
H 	1.086506122	-2.456738421	-0.866612397
H 	1.134081289	-2.427379719	0.905044615
H 	3.208619272	-0.117603241	1.209665406
H 	1.705513749	-0.234871019	2.150893942
H 	2.065920991	1.241759058	1.229090683
H 	3.156233336	-0.151210591	-1.328730847
H 	1.616855277	-0.303166460	-2.204569833
O 	-2.599391863	1.051000838	-0.025753339
C 	-3.970106339	1.564591386	-0.011942837
H 	-4.494642983	1.209239763	0.878773052
H 	-4.501754766	1.232255981	-0.907702700
H 	-3.859656632	2.649169064	-0.000529853
Zn	-3.790476111	-3.093854171	0.223568004
Cl	-5.666700847	-3.225952767	1.251213152
Cl	-2.131422715	-4.155131172	-0.660320526
