27

H 	2.407893060	0.825163470	-0.321764420
C 	4.170461150	-0.183209400	0.329191750
C 	2.873583390	-0.110203590	-0.021212850
C 	1.965389490	-1.259707080	-0.038793360
O 	0.787988830	-1.220295740	-0.456989380
H 	4.578320700	-1.153210840	0.620929450
C 	4.530554260	2.311231370	-0.034305750
C 	5.157524210	0.958693950	0.360357400
C 	6.314554320	0.607529280	-0.618632930
C 	5.730199820	1.045070780	1.805232200
H 	6.187772690	0.095432010	2.109211840
H 	5.290841360	3.099709960	0.011480640
H 	3.713791220	2.588845930	0.641799400
H 	4.131383490	2.287969970	-1.054906270
H 	7.085327870	1.386962910	-0.575039230
H 	5.947933080	0.542049200	-1.649765690
H 	6.781561170	-0.349933790	-0.356557830
H 	6.499728650	1.825496390	1.850441960
H 	4.941889880	1.295057080	2.524720890
O 	2.470877660	-2.411679730	0.439647650
C 	1.575179040	-3.572022870	0.409892710
H 	1.247694250	-3.766188290	-0.615100130
H 	0.704317800	-3.385501280	1.044706360
H 	2.176084740	-4.395179440	0.797994230
Zn	-0.367047470	0.231873390	-1.454990700
Cl	-1.659971980	-0.923996000	-2.716751900
Cl	0.245055570	2.202193940	-0.812191230
