69

C 	0.000000000	0.000000000	0.000000000
C 	-1.076421284	-0.840953022	0.000000000
C 	-1.005746920	-2.296082724	0.000000000
O 	-2.050974894	-2.980260054	-0.013060322
H 	-6.391994731	-2.410886827	3.469857804
H 	0.998338578	-0.428105662	-0.086687893
H 	-2.083340932	-0.435489844	-0.012076237
H 	-5.382676723	-1.632333963	-4.655137647
H 	-4.675883590	-2.900082566	-3.629775785
H 	-4.846042985	-3.060074506	2.891731821
H 	-6.145499947	-2.040973167	-3.095824120
C 	0.479568018	-0.097228701	2.476273376
H 	-0.295607960	0.588662353	2.794585368
H 	-6.283160503	-3.142700547	1.858742785
H 	-2.672023419	-0.799971398	2.490161930
H 	1.501527809	0.257215496	2.415341895
H 	0.302927629	-1.157353918	2.609349705
N 	-4.082425955	-1.219740193	-1.496587251
C 	-4.961632993	-0.845269549	-0.488354974
N 	-4.630568402	-1.384719697	0.739838322
C 	-4.325150594	-0.869539038	-2.896082410
H 	-3.448840661	-1.987608228	-1.290563355
C 	-5.416336527	-1.160120783	1.953697793
H 	-3.859365232	-2.048565079	0.768956356
H 	-4.886862650	0.069275338	-2.870812986
C 	-5.752892241	-2.521873142	2.588893738
C 	-5.189021795	-1.930527313	-3.617667820
H 	-3.638311076	1.236188097	-4.483826613
H 	-6.346340204	-0.688133078	1.616788293
C 	-3.007707154	-0.636486899	-3.625937839
C 	-1.958087919	-1.567754648	-3.554995380
C 	-0.768225636	-1.360238079	-4.257920061
C 	-0.609018930	-0.219342930	-5.052864969
C 	-1.647534282	0.712954605	-5.133699539
C 	-2.835061036	0.503673656	-4.422853544
H 	-2.064749642	-2.465696218	-2.949960088
H 	0.034348707	-2.092162634	-4.189099227
H 	0.316709592	-0.057759536	-5.600806384
H 	-1.532995190	1.606030168	-5.744610351
C 	-4.717593874	-0.136272916	2.923575054
C 	-5.598616752	0.084598117	4.173917891
H 	-5.192915342	0.902598298	4.782372824
H 	-5.644995450	-0.807256884	4.808356286
H 	-6.623493253	0.356665241	3.889623263
C 	-4.565412407	1.213301479	2.187430758
H 	-5.540605916	1.606458732	1.879619621
H 	-4.083603341	1.950996119	2.841985409
H 	-3.955983177	1.106382213	1.286778286
C 	-3.322214257	-0.636340388	3.356678747
H 	-3.380806399	-1.573171754	3.923345983
H 	-2.837989811	0.108266385	4.001139496
O 	-5.910227343	-0.070813591	-0.671087199
C 	0.346462855	-2.995965977	-0.022827313
H 	1.011011364	-2.620542102	0.764120143
H 	0.845066469	-2.813219836	-0.983978050
H 	0.194473190	-4.070252578	0.102705557
C 	1.125520485	2.252150773	0.271536533
C 	-0.077036921	1.484902940	-0.323416005
C 	-1.396467203	2.131012683	0.145452566
C 	0.001991819	1.565307236	-1.879914257
H 	-0.841787387	1.046032751	-2.340146730
H 	1.153804885	3.271662132	-0.130429453
H 	2.073785753	1.762835336	0.015017891
H 	1.058862155	2.322466670	1.361487356
H 	-1.388955723	3.201382878	-0.090514785
H 	-1.532514550	2.022061457	1.226468475
H 	-2.264895622	1.690668117	-0.354030610
H 	-0.017435993	2.615978453	-2.194391615
H 	0.927149988	1.113694929	-2.256744343
