69

C 	-1.534422070	0.971950740	1.877141650
C 	-0.570558010	0.114161720	1.426901820
C 	0.045030460	-0.944911490	2.217856560
O 	0.913108040	-1.689636910	1.712908990
H 	0.366873130	-4.240483340	-3.289660730
H 	-1.812747570	0.938146630	2.930399810
H 	-0.207484770	0.188630640	0.405653320
H 	5.547547410	1.279403300	0.162145170
H 	4.839288780	-0.134715240	0.973416300
H 	0.129694560	-4.034859530	-1.543927850
H 	5.062983320	-0.146556880	-0.795348410
C 	-3.517196960	-0.569303560	1.607170500
H 	-3.715683580	-0.366640390	0.561872880
H 	1.752245330	-3.880882650	-2.242278070
H 	-1.565736200	-1.418302270	-0.836937410
H 	-4.135324530	-0.095860220	2.361549470
H 	-3.010747950	-1.494447330	1.855180760
N 	2.379207960	0.023416210	-0.293988020
C 	1.949769630	-0.414396640	-1.538180990
N 	1.033107780	-1.450415320	-1.450106680
C 	3.387173330	1.071685680	-0.132847990
H 	2.125900450	-0.543995170	0.512454950
C 	0.494600590	-2.155333990	-2.616702480
H 	0.874801150	-1.852837540	-0.528749650
H 	3.376058730	1.636080150	-1.070640360
C 	0.690994160	-3.669803280	-2.414028220
C 	4.802569660	0.479922270	0.064974220
H 	3.204754250	3.797432820	-0.171732410
H 	1.103972520	-1.829515440	-3.468161990
C 	3.009090200	2.007255440	1.012099850
C 	2.715428300	1.506511580	2.292391680
C 	2.399457610	2.370959210	3.344429580
C 	2.381377590	3.755688200	3.137424970
C 	2.674820050	4.266015670	1.868998110
C 	2.983059680	3.395348010	0.815890710
H 	2.735637370	0.434065140	2.475292910
H 	2.174184050	1.964655900	4.329219180
H 	2.137427140	4.429296440	3.956357630
H 	2.659150850	5.340568950	1.696050500
C 	-0.987549310	-1.722657100	-2.928301860
C 	-1.516655690	-2.503904880	-4.153384310
H 	-2.486890750	-2.098775350	-4.468378350
H 	-1.658110230	-3.568324790	-3.934475230
H 	-0.826837830	-2.416979210	-5.003333360
C 	-0.997390610	-0.215004840	-3.266901830
H 	-0.378821870	-0.005853880	-4.147017610
H 	-2.021739940	0.122014400	-3.473417060
H 	-0.601065650	0.379675960	-2.439810360
C 	-1.910532480	-1.975249860	-1.714598540
H 	-1.960928620	-3.038748980	-1.450980600
H 	-2.931991810	-1.643621660	-1.942085320
O 	2.311997690	0.098722520	-2.605802050
C 	-0.343249360	-1.128842840	3.679238090
H 	-1.427543500	-1.249344040	3.794596450
H 	-0.050505540	-0.244254300	4.260548940
H 	0.168247240	-2.008159350	4.077404520
C 	-3.355672550	2.712279210	1.603065180
C 	-1.947053670	2.250075720	1.159804550
C 	-1.894981480	2.120866130	-0.376817220
C 	-0.907030420	3.323923290	1.611216100
H 	0.102842880	3.043048110	1.300797460
H 	-3.553118780	3.721822800	1.222823650
H 	-3.436631820	2.743615150	2.697443120
H 	-4.137264870	2.049055710	1.219310400
H 	-2.209704570	3.064785690	-0.837446160
H 	-2.559407150	1.327821590	-0.736086950
H 	-0.882799970	1.904266990	-0.731966070
H 	-1.159529980	4.291131540	1.158312760
H 	-0.905740200	3.446813470	2.700646830
