18

H 	1.929120898	0.923931496	0.002047428
C 	0.000000000	0.000000000	0.000000000
C 	1.351670035	0.000000000	-0.000000000
C 	2.212238926	-1.178137946	-0.000000000
H 	-0.498024456	-0.969587049	-0.000124492
O 	3.410130006	-1.185041707	0.006815787
I 	1.147372007	-3.215178237	-0.021784602
C 	-2.687237620	3.323851327	0.001562248
C 	-1.304085870	3.559928843	0.005167591
C 	-0.409699400	2.493640795	0.005399279
C 	-0.879859192	1.160555356	0.001244006
C 	-2.275177535	0.940907679	-0.001513871
C 	-3.170060763	2.011126940	-0.001167893
H 	-0.927926912	4.580434193	0.008224909
H 	0.658452166	2.693956095	0.008675223
H 	-2.648297329	-0.081281018	-0.003905049
H 	-4.241101458	1.822572390	-0.003533972
H 	-3.381566862	4.161019434	0.001801003
