18

H 	0.094079116	-1.503151899	1.041727651
C 	-0.868148357	-0.258763532	-0.407381445
C 	0.189515993	-0.700803909	0.310374039
C 	1.558208356	-0.198371447	0.231879525
H 	-0.690232304	0.555621156	-1.110275474
O 	2.495208556	-0.579372501	0.875492469
I 	1.931316139	1.488958778	-1.283229071
C 	-4.929968297	-1.593400005	-0.285875735
C 	-3.965655860	-2.256045861	0.489323801
C 	-2.637464278	-1.839994534	0.465090851
C 	-2.239776578	-0.747279457	-0.340119619
C 	-3.222592525	-0.094885587	-1.118777985
C 	-4.554261234	-0.511295732	-1.090026251
H 	-4.256190203	-3.100628993	1.110880437
H 	-1.902431121	-2.367579994	1.067765531
H 	-2.928238307	0.745792124	-1.744819835
H 	-5.297590441	0.004762800	-1.694172030
H 	-5.966680233	-1.923171488	-0.262496741
