27

H 	1.559846810	2.132770970	-0.674611980
C 	3.437200360	1.184861550	-0.297914430
C 	2.063588980	1.254873530	-0.283165420
C 	1.161928580	0.290856960	0.319163650
O 	-0.100183770	0.453320820	0.331537170
H 	3.933590050	0.254149070	-0.021269360
H 	3.540059310	2.882507580	1.837879320
H 	5.025473820	1.762501990	1.900861640
H 	3.370114560	1.159158300	2.516677560
C 	3.949167230	1.885903310	1.956301230
N 	1.647053830	-0.835759040	0.910731290
H 	0.980879370	-1.502711520	1.283316430
H 	2.628038240	-1.076763730	0.899881800
C 	5.638492350	1.785336790	-1.287061730
C 	6.497077000	2.656196070	-1.961043780
C 	6.011190420	3.908820280	-2.330745380
C 	4.706357130	4.313299120	-2.043869840
C 	3.859617990	3.430249850	-1.374701710
C 	4.307779210	2.147024470	-0.990833920
H 	6.004511640	0.803362410	-0.990911770
H 	7.520272270	2.377711700	-2.198061510
F 	6.843457490	4.773535440	-2.990963980
H 	4.368808030	5.302688220	-2.340680090
H 	2.845879900	3.748650730	-1.143679810
Zn	-1.334672650	2.034712120	-0.108913250
Cl	-3.349796290	1.285437470	-0.090853870
Cl	-0.212981380	3.889678030	-0.378129730
