25

H 	0.612546770	-2.275662700	1.181003320
C 	-0.648081980	-0.521360700	0.698445280
C 	0.282728030	-1.713242470	0.300758510
C 	1.480250280	-1.236031790	-0.471928550
O 	2.643413070	-1.419645220	-0.131448120
H 	-0.903409630	0.016061200	-0.226306830
H 	-0.286839550	-2.389174340	-0.356442140
H 	0.390066250	-0.034020640	2.566924140
C 	0.077291400	0.464269030	1.641387080
H 	0.973409280	0.883376530	1.167339220
H 	-0.588644920	1.291596130	1.910016140
H 	1.260785310	-0.660937870	-1.399903990
C 	-4.379380870	-1.958849050	2.398168380
C 	-4.381450070	-1.222968750	1.208757770
C 	-3.175122240	-0.766463880	0.664510050
C 	-1.951559130	-1.035016020	1.296036790
C 	-1.962286020	-1.775003330	2.490802340
C 	-3.164244190	-2.234356150	3.037021680
H 	-5.320379030	-1.002421130	0.704064110
H 	-3.184523640	-0.191254050	-0.260930740
H 	-1.027043650	-1.995177780	3.002845420
H 	-3.152766210	-2.808802370	3.961563000
H 	-5.315109530	-2.315806630	2.823985630
I 	4.476370540	-0.073039330	-1.732122280
I 	6.125710340	1.396330730	-3.412158270
