25

H 	0.612546768	-2.275662705	1.181003325
C 	-0.648081981	-0.521360704	0.698445277
C 	0.282728029	-1.713242468	0.300758506
C 	1.480250280	-1.236031785	-0.471928554
O 	2.643413067	-1.419645222	-0.131448116
H 	-0.903409627	0.016061201	-0.226306829
H 	-0.286839549	-2.389174338	-0.356442143
H 	0.390066245	-0.034020637	2.566924138
C 	0.077291404	0.464269027	1.641387077
H 	0.973409278	0.883376531	1.167339221
H 	-0.588644922	1.291596132	1.910016139
H 	1.260785312	-0.660937872	-1.399903994
C 	-4.379380869	-1.958849046	2.398168378
C 	-4.381450066	-1.222968751	1.208757774
C 	-3.175122237	-0.766463884	0.664510052
C 	-1.951559129	-1.035016020	1.296036791
C 	-1.962286021	-1.775003335	2.490802338
C 	-3.164244186	-2.234356146	3.037021684
H 	-5.320379031	-1.002421130	0.704064110
H 	-3.184523643	-0.191254053	-0.260930740
H 	-1.027043654	-1.995177779	3.002845419
H 	-3.152766211	-2.808802374	3.961563005
H 	-5.315109527	-2.315806631	2.823985631
I 	4.476370545	-0.073039334	-1.732122281
I 	6.125710336	1.396330732	-3.412158268
