25

H 	0.596131388	-2.269837720	1.136266016
C 	-0.650898414	-0.491689718	0.724111530
C 	0.259841933	-1.682349497	0.275700364
C 	1.448350690	-1.190985227	-0.497293370
O 	2.612526744	-1.368147778	-0.159394408
H 	-0.908630041	0.079146261	-0.178998252
H 	-0.326748578	-2.332648337	-0.390709173
H 	0.422741032	-0.081085956	2.590975653
C 	0.098890770	0.450895500	1.689092840
H 	0.991833227	0.876513823	1.215964920
H 	-0.552785917	1.275318937	1.997077371
H 	1.223142942	-0.611566318	-1.420173862
C 	-4.375121742	-1.990289539	2.379394445
C 	-4.372222779	-1.279154597	1.175762397
C 	-3.168350084	-0.798899078	0.648566689
C 	-1.952364379	-1.017650945	1.312358967
C 	-1.967834217	-1.733831841	2.520692009
C 	-3.167533960	-2.216421949	3.050234902
H 	-5.305181817	-1.095682522	0.647132020
H 	-3.173541816	-0.243390956	-0.288248940
H 	-1.038805687	-1.916271812	3.056768911
H 	-3.160229162	-2.768411502	3.987766475
H 	-5.309001749	-2.364838654	2.792449742
I 	4.469397812	-0.093264709	-1.755261133
I 	6.188124413	1.286943552	-3.447848172
