35

H 	1.914504142	0.926003982	-0.141823649
C 	0.000000000	0.000000000	0.000000000
C 	1.374040903	-0.002714861	-0.000000000
C 	2.242607990	-1.170205203	-0.000000000
O 	3.393721532	-1.131303664	-0.564821858
H 	-0.542786836	-0.904679162	0.239986049
H 	-0.378378584	0.252538160	-2.687264475
H 	-1.708260249	-0.845012268	-1.972541977
H 	-0.004319234	-1.525552973	-2.317059798
C 	-0.662452541	-0.672233620	-2.202206609
N 	1.884629030	-2.355726300	0.564864899
C 	0.871187897	-2.499994896	1.620115538
C 	2.744629716	-3.532748738	0.352490226
H 	0.605882071	-1.525757827	2.030136590
H 	1.294343673	-3.113464912	2.423875669
H 	-0.031797505	-2.997878662	1.244016884
H 	2.116145041	-4.428446674	0.384387281
H 	3.511140726	-3.602639155	1.136228241
H 	3.242773147	-3.455775103	-0.613500601
C 	-0.288226435	2.507653503	-0.283037093
C 	-1.095271397	3.642490150	-0.244939832
C 	-2.451937662	3.534040143	0.090135524
C 	-3.000456182	2.282176759	0.384628418
C 	-2.172165455	1.168905086	0.339724713
C 	-0.805259098	1.229218325	0.018147323
H 	0.757659033	2.606892419	-0.559010757
H 	-0.668761421	4.613765467	-0.481574573
H 	-3.083235441	4.418581760	0.119874730
H 	-4.047381618	2.160365668	0.648332360
F 	-2.724280279	-0.058922998	0.627486753
Sn	4.486269017	0.345569420	-1.890702220
Cl	6.037195415	-1.448829157	-1.954026504
Cl	4.428135005	1.807057375	0.005592049
Cl	5.728601508	1.846037273	-3.300430590
Cl	2.548314939	0.258458324	-3.289033927
