35

H 	1.540107700	1.998864851	-0.916378112
C 	3.394295296	1.011310430	-0.556311374
C 	2.022644513	1.089804960	-0.576523012
C 	1.086840116	0.125468205	-0.018161806
O 	-0.051261161	0.503768019	0.437046038
H 	3.879077621	0.074929456	-0.313758268
H 	3.827693608	2.525283538	1.668185776
H 	5.079522919	1.142241444	1.603777881
H 	3.343845973	0.819388438	2.210766047
C 	4.049334791	1.466581028	1.702915773
N 	1.365659639	-1.203475521	0.075911605
C 	2.352678919	-1.905597987	-0.757303406
C 	0.441070358	-2.072557003	0.824188318
H 	2.668715448	-1.274732271	-1.587828344
H 	1.881918867	-2.808066346	-1.163963528
H 	3.230341424	-2.207514242	-0.171405652
H 	1.015082734	-2.904218906	1.245060592
H 	-0.340047414	-2.472221843	0.163285817
H 	-0.036932318	-1.503020141	1.620650056
C 	3.834168764	3.314101129	-1.533642890
C 	4.706060728	4.234991737	-2.110177434
C 	6.048722485	3.896666145	-2.327836465
C 	6.517923512	2.631272648	-1.962610155
C 	5.626200362	1.733723541	-1.391041161
C 	4.270273709	2.024170662	-1.161724622
H 	2.800269829	3.597171134	-1.358113399
H 	4.341215851	5.220811761	-2.386455548
H 	6.730560015	4.614294505	-2.777216368
H 	7.551715778	2.334520234	-2.116370149
F 	6.100510698	0.492321287	-1.031667088
Sn	-1.034541624	2.502196023	0.852037477
Cl	-2.687446849	1.063771926	1.762031623
Cl	-0.919140063	2.840869491	-1.515923950
Cl	-2.164663702	4.571040381	1.326205147
Cl	0.915924213	2.997483639	2.143919480
