25

H 	0.799687020	-1.983688494	-0.005380429
C 	0.000000000	0.000000000	0.000000000
C 	-0.083739583	-1.352344915	-0.000000000
C 	-1.331056971	-2.097007169	-0.000000000
O 	-1.402842892	-3.347364748	0.024405233
H 	-0.925658655	0.575255521	0.007045358
C 	1.141810873	2.188847696	0.022286061
C 	2.284465419	2.987008055	0.018328291
C 	3.525992485	2.357350590	-0.014906309
C 	3.661874607	0.967778094	-0.045425705
C 	2.513248869	0.184585177	-0.040350904
C 	1.228826261	0.779011066	-0.005709618
H 	0.161585334	2.660236920	0.047359647
H 	2.226434159	4.071560735	0.039977692
F 	4.653276630	3.125902224	-0.020473753
H 	4.652786271	0.523183346	-0.072748387
H 	2.615678268	-0.896809062	-0.066242837
O 	-2.458103056	-1.359193694	-0.029548772
C 	-3.719993346	-2.101115888	-0.019683205
H 	-3.783332256	-2.721150130	0.878275220
H 	-3.787844138	-2.734926425	-0.907859928
H 	-4.493014289	-1.332304584	-0.024915466
Zn	-0.000220348	-4.901922653	0.210240980
Cl	2.011297557	-4.185646295	-0.161064288
Cl	-1.190591166	-6.612584434	0.715605111
