23

H 	-1.172691203	-0.071143238	-0.151626371
C 	-0.182537585	-3.835161753	-1.037146874
C 	0.345187730	-1.421445320	-0.501009066
C 	2.946629499	-0.416003818	-0.345657723
O 	3.526904299	1.764359501	0.135691217
H 	1.317050292	-5.189422699	-1.391341605
C 	-7.923740996	-6.520411762	-1.430398597
C 	-6.437299736	-7.073532369	0.688186117
C 	-3.939848556	-6.207222519	0.815056187
C 	-2.928838616	-4.787792044	-1.176658475
C 	-4.415279857	-4.234671437	-3.295243189
C 	-6.912731056	-5.100981286	-3.422113259
H 	-7.210951589	-8.159718505	2.212299426
H 	-2.802383983	-6.630485190	2.436253855
H 	-3.641628041	-3.148485301	-4.819356498
H 	-8.050195648	-4.677718615	-5.043310927
H 	-9.834857422	-7.183335226	-1.527482955
H 	4.393880542	-1.782642280	-0.701010819
Sn	3.475792706	6.874795598	2.589344404
Cl	0.357147920	5.460318794	5.470433893
Cl	0.266463591	8.198588073	-0.234685843
Cl	6.594437512	8.289272402	-0.291745103
Cl	6.685121840	5.551003122	5.413374633
