23

H 	-2.003838460	0.464630440	-0.323222710
C 	-0.938790060	-1.399330540	-0.166702810
C 	-1.061089650	-0.049485010	-0.151724200
C 	0.112606420	0.787489370	0.104699960
O 	0.128773950	2.012214380	0.148670350
H 	0.061555150	-1.794406030	0.024277600
C 	-3.803729900	-4.505914810	-0.844387190
C 	-2.473522370	-4.807333780	-0.555304150
C 	-1.559738150	-3.780640210	-0.337607920
C 	-1.949276040	-2.426880680	-0.401262080
C 	-3.299346570	-2.144072920	-0.693881780
C 	-4.210216420	-3.170146290	-0.912604930
H 	-2.147586540	-5.843562670	-0.500224390
H 	-0.524053770	-4.026260570	-0.113125160
H 	-3.639809790	-1.114868320	-0.753654350
H 	-5.246552010	-2.930761590	-1.139440080
H 	-4.521348530	-5.305084370	-1.016514270
H 	1.050968670	0.208377600	0.267247930
Sn	3.383495240	3.684744260	0.865052390
Cl	1.810748630	4.361346880	2.423728870
Cl	2.763196250	4.156971200	-1.315500130
Cl	3.912548620	1.432659950	1.126082410
Cl	5.345735640	4.863500620	1.297692730
