23

H 	-3.786705887	0.878024290	-0.610802395
C 	-1.774056109	-2.644351481	-0.315022648
C 	-2.005168841	-0.093513112	-0.286717179
C 	0.212795294	1.488139228	0.197854254
O 	0.243347494	3.802534078	0.280946251
H 	0.116322367	-3.390935951	0.045878023
C 	-7.188007757	-8.514944928	-1.595660540
C 	-4.674279842	-9.084544241	-1.049372766
C 	-2.947477923	-7.144374566	-0.637986497
C 	-3.683597864	-4.586139828	-0.758275428
C 	-6.234861408	-4.051710615	-1.311246520
C 	-7.956155955	-5.990708255	-1.724573372
H 	-4.058350393	-11.042733050	-0.945287093
H 	-0.990318098	-7.608529787	-0.213775577
H 	-6.878243646	-2.106795787	-1.424200321
H 	-9.914546400	-5.538336748	-2.153229687
H 	-8.544110441	-10.025156535	-1.920933563
H 	1.986042944	0.393776594	0.505025398
Sn	6.393879340	6.963157496	1.634712099
Cl	3.421818991	8.241751139	4.580183760
Cl	5.221684141	7.855537075	-2.485934968
Cl	7.393645347	2.707334943	2.127987348
Cl	10.101976289	9.190684172	2.452283851
