23

H 	-1.578210430	0.205815760	-0.144508557
C 	-0.802903477	-1.798647352	-0.079309335
C 	-0.726120899	-0.450443813	0.015053675
C 	0.536612405	0.208915453	0.342343052
O 	0.682582186	1.418366223	0.444549072
H 	0.119938974	-2.353010160	0.103059222
C 	-4.119472495	-4.339033492	-0.995411137
C 	-2.860229480	-4.874827871	-0.724269449
C 	-1.794188733	-4.029951477	-0.428298772
C 	-1.958600706	-2.630654995	-0.394483528
C 	-3.239485765	-2.108689471	-0.669324971
C 	-4.302727995	-2.952892660	-0.965642668
H 	-2.707849194	-5.951201380	-0.744988436
H 	-0.814770744	-4.454335827	-0.219197640
H 	-3.405792653	-1.036030514	-0.653603380
H 	-5.282355679	-2.530421415	-1.176077231
H 	-4.955057198	-4.994852392	-1.227698050
H 	1.400523442	-0.480597125	0.501424096
Sn	3.366598044	4.333202928	0.805928755
Cl	1.638403195	4.673271940	2.307690368
Cl	2.606128364	4.323421047	-1.382892376
Cl	4.531863246	2.386425780	1.289463252
Cl	4.855845905	6.109357720	1.028490130
