31

H 	1.623434125	2.321761624	-0.702270892
C 	3.403855800	1.122547117	-0.762936709
C 	2.055936089	1.333648397	-0.605956703
C 	1.120759294	0.308078824	-0.229240961
O 	-0.084697391	0.514637495	0.053825680
H 	3.762394578	0.096062198	-0.756450948
H 	3.606551567	2.036268634	1.850399036
H 	5.166112391	1.102038255	1.424091091
H 	3.605231856	0.174417294	1.864569285
C 	4.097042848	1.103516732	1.600764276
O 	1.608403809	-0.950717358	-0.173589225
C 	0.660816579	-1.985230425	0.241529604
H 	-0.165957518	-2.042651882	-0.471481286
H 	0.268816613	-1.757529168	1.236329875
H 	1.241347363	-2.908257206	0.246175921
C 	6.273703555	3.992023357	-2.132037194
C 	6.593455604	2.630478253	-2.079989597
C 	5.649282329	1.710855300	-1.623747043
C 	4.364903745	2.130554450	-1.218614401
C 	4.058205434	3.506556832	-1.273619374
C 	5.003793036	4.424704236	-1.725682432
H 	7.576714201	2.287677230	-2.394124906
H 	5.898337821	0.651934573	-1.581949493
H 	3.082210059	3.861093278	-0.953664230
H 	4.753637527	5.482532669	-1.759557569
H 	7.008365962	4.712565785	-2.483961397
Ti	-1.333317679	2.189602381	0.599634702
Cl	-2.597641597	3.940409500	1.208710434
Cl	-2.852041729	0.609152495	1.053608302
Cl	0.319390008	2.626824028	2.086489217
Cl	-1.058920981	2.851645350	-1.536095173
