30

H 	1.910848885	0.911872039	0.197172379
C 	0.000000000	0.000000000	0.000000000
C 	1.350952164	-0.000000000	-0.000000000
C 	2.203421136	-1.194065315	0.000000000
O 	3.217155370	-1.225562783	0.787797536
H 	-0.532711987	-0.942803556	-0.126747679
C 	-0.349582862	2.427445880	0.584077649
C 	-1.199491647	3.516730140	0.747146459
C 	-2.566255352	3.340617993	0.524959330
C 	-3.111222495	2.113364912	0.157603737
C 	-2.247051323	1.029859492	0.001569872
C 	-0.855615781	1.165715826	0.195610166
H 	0.711019309	2.553793938	0.783139882
H 	-0.823579425	4.488921668	1.053467839
F 	-3.400434225	4.410005244	0.685238665
H 	-4.182619699	2.018263662	0.005645401
H 	-2.653982414	0.060842861	-0.281005586
N 	1.977537705	-2.266237848	-0.784737291
C 	2.790098350	-3.485408815	-0.620969351
C 	1.048866127	-2.278139448	-1.923376537
H 	3.279293394	-3.471252636	0.351513944
H 	3.552663856	-3.540287630	-1.408296799
H 	2.131561873	-4.357014756	-0.700222583
H 	0.160566478	-2.881554177	-1.697823074
H 	1.561265537	-2.723465479	-2.783734349
H 	0.745430507	-1.262724114	-2.174971678
Al	3.645644471	-0.105402687	2.219078103
F 	2.399356602	-0.373902455	3.320264450
F 	3.592747014	1.456358720	1.559664819
F 	5.168898369	-0.629538770	2.682966430
