30

H 	2.489322321	0.290703310	1.132987900
C 	4.128357011	-0.226883949	-0.118970462
C 	2.924313747	-0.440833590	0.455117614
C 	1.971332057	-1.488478683	0.072023654
O 	0.728987538	-1.180648585	-0.033308537
H 	4.504279254	-0.942345294	-0.850764908
C 	4.585269136	2.048912740	0.864812603
C 	5.449929808	3.118000390	1.076685433
C 	6.733698094	3.060961086	0.531606414
C 	7.176449415	1.979629126	-0.225217147
C 	6.297032034	0.917097103	-0.432033852
C 	4.996685421	0.921866630	0.116853556
H 	3.576113408	2.101948078	1.263884703
H 	5.142434791	3.993006355	1.642468547
F 	7.582301590	4.110606361	0.739572409
H 	8.180326732	1.981630173	-0.640251940
H 	6.622626515	0.064273666	-1.024583808
N 	2.331616748	-2.762717041	-0.178777921
C 	1.340760584	-3.720859866	-0.701863933
C 	3.639760955	-3.336498502	0.165613497
H 	0.495059249	-3.179618838	-1.122676660
H 	0.985792681	-4.375726386	0.104082699
H 	1.820224096	-4.332288602	-1.473821136
H 	4.238266785	-3.516024378	-0.736396037
H 	3.475515273	-4.295821282	0.669406263
H 	4.181094774	-2.669619081	0.835442673
Al	-0.078014788	0.502331984	-0.090310847
F 	0.522779776	1.182834592	-1.509429954
F 	0.501203862	1.292188110	1.294375316
F 	-1.716961569	0.150465293	-0.074287929
