33

H 	1.660516424	2.171487283	-0.746387557
C 	3.485457062	1.070155708	-0.701796416
C 	2.120026899	1.199035415	-0.619228071
C 	1.219418148	0.117543672	-0.329950641
O 	-0.016905161	0.312842195	-0.137705234
H 	3.929432307	0.082462548	-0.632043417
H 	3.904382155	2.305221687	1.754686326
H 	5.119934683	0.892215681	1.593539444
H 	3.357152131	0.568860042	2.129151330
C 	4.101528918	1.241220779	1.719601252
C 	0.618467291	-2.343315715	0.077335852
C 	1.714053206	-1.319226981	-0.239509919
H 	-0.158030521	-2.340213262	-0.693621719
H 	0.133520248	-2.119834362	1.032576264
H 	1.052582857	-3.347545150	0.131650691
H 	2.216255881	-1.564862355	-1.186223354
H 	2.502720620	-1.348300714	0.527729737
C 	3.967336359	3.448290077	-1.431361632
C 	4.870205095	4.422625949	-1.846445018
C 	6.231939586	4.113992276	-1.976784048
C 	6.689393318	2.824848535	-1.688364053
C 	5.768344177	1.872414146	-1.274936615
C 	4.391997760	2.133632509	-1.130918536
H 	2.915243536	3.701491816	-1.340729179
H 	4.515288685	5.424588447	-2.072368279
H 	6.937686672	4.874188775	-2.302019510
H 	7.737286725	2.552730214	-1.778526640
F 	6.229864687	0.613238829	-0.982495569
Sn	-1.244475886	2.242540690	0.280771626
Cl	-2.934067614	0.627832572	0.638610284
Cl	-0.682359232	2.855606632	-1.961168770
Cl	-2.535968977	4.199679765	0.780205750
Cl	0.408388543	2.588325138	1.982898601
