29

H 	  2.085308	  0.786510	  0.078316
C 	  0.000000	  0.000000	  0.000000
C 	  1.490596	 -0.118876	  0.000000
C 	  2.200556	 -1.355257	 -0.000000
O 	  3.474644	 -1.403096	  0.120119
H 	 -0.425981	 -0.747518	 -0.684806
H 	 -1.561706	  1.457301	 -0.433634
H 	 -0.110255	  1.629833	 -1.451213
C 	 -0.468086	  1.402699	 -0.440316
H 	 -0.083462	  2.169810	  0.241035
C 	  1.490520	 -2.677063	 -0.135673
H 	  0.851741	 -2.847568	  0.740444
H 	  2.225017	 -3.480775	 -0.213863
H 	  0.837762	 -2.683390	 -1.017185
C 	 -1.407306	 -1.024385	  3.985492
C 	 -0.392745	 -0.075384	  3.821657
C 	  0.061912	  0.253075	  2.541873
C 	 -0.497681	 -0.364754	  1.408572
C 	 -1.505721	 -1.324255	  1.581538
C 	 -1.965800	 -1.646229	  2.861680
H 	  0.050765	  0.406162	  4.690132
H 	  0.858196	  0.984396	  2.426088
H 	 -1.938277	 -1.813119	  0.710216
H 	 -2.758214	 -2.381788	  2.982224
H 	 -1.760112	 -1.280514	  4.981863
B 	  4.469922	 -0.085435	  0.374994
F 	  3.986448	  0.496639	  1.542200
F 	  4.297652	  0.715781	 -0.746049
F 	  5.705595	 -0.657539	  0.489572
