29

H 	2.085307644	0.786510286	0.078316205
C 	0.000000000	0.000000000	0.000000000
C 	1.490595638	-0.118875831	0.000000000
C 	2.200555724	-1.355257285	-0.000000000
O 	3.474643861	-1.403095987	0.120119183
H 	-0.425980801	-0.747517558	-0.684805766
H 	-1.561705573	1.457301410	-0.433634119
H 	-0.110255484	1.629833266	-1.451212515
C 	-0.468085942	1.402699071	-0.440315619
H 	-0.083461519	2.169809814	0.241034535
C 	1.490519860	-2.677063276	-0.135673348
H 	0.851740979	-2.847567864	0.740444470
H 	2.225016702	-3.480774548	-0.213863110
H 	0.837761767	-2.683390358	-1.017184569
C 	-1.407305902	-1.024384740	3.985492155
C 	-0.392745136	-0.075383839	3.821657065
C 	0.061911536	0.253075394	2.541872916
C 	-0.497680861	-0.364754258	1.408572376
C 	-1.505720652	-1.324255339	1.581538319
C 	-1.965799641	-1.646229073	2.861680305
H 	0.050764904	0.406162381	4.690131597
H 	0.858196279	0.984396257	2.426088044
H 	-1.938276884	-1.813119419	0.710216044
H 	-2.758213991	-2.381787825	2.982223812
H 	-1.760112406	-1.280514245	4.981863390
B 	4.469921809	-0.085434752	0.374993822
F 	3.986448301	0.496639062	1.542200409
F 	4.297652332	0.715781306	-0.746049161
F 	5.705595405	-0.657538664	0.489571655
