29

H 	1.428063526	2.167736145	0.925084289
C 	3.489417680	1.432137333	0.497353916
C 	1.995964165	1.368199610	0.458425942
C 	1.249722077	0.371819307	-0.236578705
O 	-0.025603156	0.430107306	-0.337404299
H 	3.895283369	0.417682220	0.621268993
H 	5.094960052	2.341532008	1.657494106
H 	3.652529692	1.931505455	2.618333987
C 	4.000230506	2.317491913	1.653106702
H 	3.636293919	3.345079914	1.542445372
C 	1.920753744	-0.804150200	-0.897291565
H 	2.551387681	-0.455417001	-1.725167581
H 	1.163043979	-1.490591863	-1.279685098
H 	2.575867328	-1.329690585	-0.191721802
C 	4.852973214	2.848440614	-3.381927336
C 	3.867478938	3.554165761	-2.683692959
C 	3.426857941	3.099043005	-1.438236400
C 	3.971555686	1.930467715	-0.875241370
C 	4.950191737	1.221530169	-1.586847157
C 	5.396423468	1.682046742	-2.828984426
H 	3.435628960	4.456623892	-3.110203038
H 	2.652945236	3.649220599	-0.908453924
H 	5.370885306	0.311692143	-1.161985796
H 	6.166326767	1.131216195	-3.365018507
H 	5.194840712	3.202466165	-4.351784497
B 	-0.982256109	1.677460877	0.228894739
F 	-0.485517680	2.812847357	-0.402830082
F 	-0.782745358	1.686434986	1.603113150
F 	-2.234684220	1.302468231	-0.168754033
