27

H 	2.633008680	0.426942850	-0.734124030
C 	4.349661740	-0.321829550	0.281208080
C 	3.095063580	-0.415163900	-0.222446070
C 	2.235179790	-1.596488570	-0.133531040
O 	1.070175040	-1.567407460	-0.578867420
H 	4.775088140	-1.185722420	0.793091170
O 	5.475553900	4.306787290	-1.088545360
H 	4.577597510	4.267811560	-1.465893000
C 	5.765860760	3.112249660	-0.465144420
C 	7.028621920	3.011581130	0.147904570
C 	7.386490150	1.827978740	0.792170490
C 	6.502944530	0.745964000	0.831650850
C 	5.234963050	0.836617060	0.218554250
C 	4.874931800	2.038997500	-0.430581970
H 	7.703523920	3.862953640	0.106577600
H 	8.362340380	1.750107320	1.266005050
H 	3.902314740	2.134942620	-0.909652880
H 	6.788047000	-0.176091930	1.333744530
C 	1.734605050	-4.030664620	0.519664010
C 	2.757569290	-2.888250800	0.498293380
H 	1.424613160	-4.300373930	-0.495222510
H 	0.835116590	-3.743325620	1.074020230
H 	2.171420430	-4.915114950	0.997425140
H 	3.662778340	-3.186350870	-0.051418160
H 	3.093390410	-2.651068300	1.518662940
I 	-0.153897940	0.666797230	-1.505238130
I 	-1.474400230	2.957712980	-2.414388020
