23

H 	1.887044159	0.948538075	-0.000127644
C 	0.000000000	0.000000000	0.000000000
C 	1.353601612	0.000000000	0.000000000
C 	2.167833247	-1.204157627	0.000000000
O 	3.413807132	-1.141209746	0.009200311
H 	-0.589728586	-0.918660280	0.001838898
O 	-0.699988570	1.149411798	0.000343717
C 	-2.161169124	1.022780586	-0.009058534
C 	-2.747983564	2.421931177	0.043467392
H 	-2.461976514	0.424037545	0.861138815
H 	-2.454337773	0.494744366	-0.926347268
H 	-2.434910387	2.940082915	0.956094985
H 	-3.842574594	2.360381044	0.035291910
H 	-2.426156991	3.010339515	-0.822335177
C 	2.506514297	-3.752152131	0.037073975
C 	1.508225830	-2.589748333	-0.019121726
H 	3.107324460	-3.710424521	0.951139853
H 	3.196727787	-3.719240020	-0.811482151
H 	1.970924739	-4.707895315	0.015148231
H 	0.806355852	-2.646073831	0.825128603
H 	0.894619118	-2.655343590	-0.929580427
I 	4.875615554	1.122138804	0.076994481
I 	6.457895960	3.427791242	0.157183925
