23

H 	2.387959640	0.594421710	0.354551520
C 	4.239043680	-0.386384460	0.636470740
C 	2.907607000	-0.361315730	0.391859160
C 	2.100926520	-1.551270020	0.164675640
O 	0.877369730	-1.469382990	-0.069478450
H 	4.810966100	-1.315585860	0.682281920
O 	4.942635630	0.745276360	0.835199870
C 	6.380175710	0.574373260	1.082507070
C 	7.003585630	1.954202370	1.198832520
H 	6.808979340	0.007484160	0.244647610
H 	6.502577320	-0.005373120	2.007782350
H 	6.860716210	2.524111010	0.274057330
H 	8.080058330	1.853110550	1.383000060
H 	6.559341190	2.513854740	2.029306860
C 	1.777344640	-4.089617240	-0.112119540
C 	2.744770790	-2.944849870	0.212747990
H 	1.361940930	-3.979425550	-1.119312720
H 	0.938112320	-4.107348380	0.590483130
H 	2.301827440	-5.050492680	-0.054803350
H 	3.594079710	-2.952653710	-0.485879430
H 	3.175165340	-3.080057620	1.216410710
I 	-0.535546130	0.819815210	-0.257003310
I 	-2.062188530	3.152777640	-0.476378520
