68

C 	0.764926300	-0.610362970	1.760638300
C 	1.826571360	-1.641416340	1.540655260
C 	3.231600670	-1.367416800	1.450689720
O 	4.119881180	-2.236591450	1.321317760
H 	4.844808880	-4.445666190	6.321006810
H 	1.208517960	0.232336080	2.304850200
H 	1.543466340	-2.681696960	1.419554430
H 	3.076623970	-6.360898060	-1.985914380
H 	3.857844120	-4.866445070	-1.435655410
H 	5.130238830	-3.330456860	4.971534600
H 	4.372386390	-6.425183280	-0.761521110
C 	0.249835060	-0.044955870	0.395756680
H 	-0.207459800	-0.840880570	-0.199035300
H 	5.350652860	-5.076156890	4.742891790
H 	2.482709710	-1.841362610	4.087773150
H 	-0.501966710	0.730088870	0.585825280
H 	1.078209160	0.392370830	-0.172411530
N 	3.047301020	-5.047734580	1.159370120
C 	2.768720180	-5.332070400	2.470420580
N 	3.207973290	-4.370863550	3.336398540
C 	2.459786620	-5.749931710	0.006833550
H 	3.483331520	-4.140433350	0.972525050
C 	3.266677240	-4.481757720	4.801038270
H 	3.714700690	-3.591600200	2.916712850
H 	2.215959690	-6.753417980	0.368094660
C 	4.734449500	-4.318389370	5.239777450
C 	3.506101680	-5.854803720	-1.114102960
H 	-0.075534890	-6.533332310	0.569648780
H 	2.938568430	-5.501452170	5.029844610
C 	1.155344270	-5.080934750	-0.434054240
C 	1.150210050	-3.903264460	-1.200237820
C 	-0.054731660	-3.307555110	-1.587296100
C 	-1.275825730	-3.875873230	-1.204514530
C 	-1.281052830	-5.040331490	-0.427954330
C 	-0.074158520	-5.636790070	-0.045655020
H 	2.090457370	-3.448175690	-1.505671490
H 	-0.040563700	-2.402739420	-2.191812170
H 	-2.213507790	-3.412411510	-1.504704240
H 	-2.225443340	-5.486273450	-0.121175030
C 	2.248152220	-3.506080090	5.494869550
C 	2.308486120	-3.715860420	7.026381990
H 	1.506483380	-3.146141100	7.512241720
H 	3.259945500	-3.379087880	7.453919500
H 	2.171004180	-4.774271020	7.283393990
C 	0.821520720	-3.845329920	5.008465340
H 	0.561267020	-4.881168520	5.250230850
H 	0.091270430	-3.179049300	5.480862110
H 	0.729142260	-3.725570600	3.926154080
C 	2.558983490	-2.029739180	5.164788330
H 	3.560616080	-1.734245590	5.500260880
H 	1.832506210	-1.372884240	5.658195330
S 	1.961504550	-6.741098210	2.969458330
O 	3.539446220	-0.029633400	1.540219930
C 	4.957770150	0.290795420	1.491891260
H 	5.389740060	-0.029856300	0.538029230
H 	5.488859250	-0.204838270	2.311081540
H 	5.008677250	1.376140200	1.595896890
C 	-2.503705120	-2.186917140	4.145398150
C 	-2.139402150	-2.818025340	2.950125290
C 	-1.090299090	-2.312419710	2.178859710
C 	-0.384649910	-1.171978940	2.593206230
C 	-0.752754650	-0.548214330	3.792636260
C 	-1.808438130	-1.047673120	4.563941440
H 	-2.665848750	-3.711261610	2.620264750
H 	-0.820511550	-2.818772660	1.255741320
H 	-0.205879160	0.332137780	4.127920430
H 	-2.079937430	-0.552149230	5.494344280
H 	-3.316761910	-2.584432510	4.749337440
