33

H 	2.013655947	0.952826548	0.061436292
C 	0.000000000	0.000000000	0.000000000
C 	1.495557801	0.000000000	0.000000000
C 	2.318500466	-1.169170711	-0.000000000
O 	3.577410663	-1.069048570	0.107435305
H 	-0.355507648	-0.754254919	-0.717727972
H 	-1.665058901	1.346702936	-0.417140889
H 	-0.216271628	1.661974112	-1.403326797
C 	-0.570744107	1.377008919	-0.406203450
H 	-0.257262718	2.148616614	0.305946876
C 	2.748861301	-3.686911566	-0.095558730
C 	1.717231513	-2.554981349	-0.126327816
H 	3.311894856	-3.677432021	0.843210689
H 	3.471264512	-3.585358118	-0.911599280
H 	2.246095168	-4.655070161	-0.191562950
H 	0.978097677	-2.671140998	0.679884877
H 	1.131180635	-2.581866040	-1.058705041
C 	-1.511330008	-1.421981388	1.484018684
C 	-1.995534382	-1.808364188	2.737905637
C 	-1.483197541	-1.234217600	3.906324148
C 	-0.485767336	-0.271083506	3.779501336
C 	0.013548058	0.136191517	2.546555911
C 	-0.511845086	-0.443868838	1.379540770
H 	-1.916001133	-1.876642680	0.582526254
H 	-2.777833823	-2.560390790	2.808738256
H 	-1.839702801	-1.519661081	4.891960065
F 	0.028217684	0.296662653	4.911926798
H 	0.803597124	0.881065850	2.511533727
Ti	5.096702085	0.434054897	0.395325044
Cl	6.584723053	2.085265028	0.690858336
Cl	4.395994116	1.154796782	-1.630668970
Cl	3.915651071	0.901249106	2.273662841
Cl	6.526505356	-1.273510858	0.459680193
