35

H 	1.800068776	1.844551573	1.378400935
C 	3.723531740	1.044807800	0.626092409
C 	2.246904951	0.980502632	0.892079603
C 	1.272596427	0.162018381	0.209930033
O 	0.135925934	0.675958931	-0.097179132
H 	4.128067951	0.056280634	0.387652348
H 	5.568402712	1.710246670	1.574477730
H 	4.401203420	0.977290941	2.703023876
C 	4.505153387	1.623023784	1.822901343
H 	4.135039748	2.618885822	2.089656474
N 	1.505968511	-1.127474885	-0.143776457
C 	0.537787619	-1.825759990	-1.005425959
C 	2.528909853	-1.968225070	0.487397890
H 	0.075148541	-1.114459751	-1.687511123
H 	-0.241750425	-2.308091301	-0.400493906
H 	1.075789555	-2.589795342	-1.575055165
H 	3.330708555	-2.213873490	-0.220326187
H 	2.059625052	-2.902868511	0.817722686
H 	2.946893961	-1.467149940	1.360295067
C 	3.463641917	3.233813946	-0.682305729
C 	3.542597651	3.979636320	-1.857633061
C 	4.025285452	3.358939692	-3.006621715
C 	4.423064448	2.024868526	-3.020686578
C 	4.326727126	1.291733496	-1.836407235
C 	3.862069696	1.885729615	-0.653704222
H 	3.062507488	3.705714968	0.209254338
H 	3.219968663	5.015967613	-1.895391665
F 	4.106522915	4.082081887	-4.163500383
H 	4.784742688	1.577405835	-3.942060903
H 	4.618016100	0.243235310	-1.834918238
Ti	-0.616114782	2.251254708	-1.229414770
Cl	-1.297668179	3.947684959	-2.549564400
Cl	0.014780591	3.644480282	0.453367452
Cl	0.819567411	1.463372437	-2.813545338
Cl	-2.617982683	1.271140118	-1.023424039
