8
C3H3ClO optimized with ADF in AMS.
 C       -1.61362405684166      -2.78227313279242      -0.15672528178576
 C       -1.63752416473069      -1.44912922859300      -0.01053457191262
 C       -2.91553170820944      -0.72003693391925       0.04944887352536
 O       -3.00816286570709       0.48970708460393       0.17842129102318
 H       -0.72166893474115      -0.86861568759368       0.06777904077557
 H       -3.82504090471112      -1.36238930771498      -0.03504436757469
 Cl      -0.17323609677019      -3.72020508405515      -0.23839210344143
 H       -2.51157512251133      -3.39033544172640      -0.24080896072324
