31

H 	2.118244285	0.084139010	-0.057577513
C 	0.000000000	0.000000000	0.000000000
C 	1.245319296	-0.553332942	0.000000000
C 	1.547581051	-1.976327649	0.000000000
O 	2.710129370	-2.438103537	-0.225983289
H 	-0.878578346	-0.633548841	0.129728000
H 	0.094938363	0.366267591	-2.801023695
H 	-1.622112915	-0.250021874	-2.394607587
H 	-0.178541356	-1.430487599	-2.432274596
C 	-0.550896465	-0.413537834	-2.417631260
N 	0.562620920	-2.882130736	0.236542586
H 	-0.336841613	-2.602606463	0.602472983
H 	0.819013304	-3.862042291	0.268100374
C 	-0.358005672	1.661187087	1.773911111
C 	-0.264165383	1.482868805	0.226371428
C 	-1.613506063	1.911016786	-0.395909918
C 	0.870044175	2.374584049	-0.322803427
H 	1.021585684	2.207444730	-1.394750037
H 	-0.569643430	2.710824967	2.010578328
H 	0.582625659	1.375735621	2.256201452
H 	-1.164058405	1.048882011	2.197001139
H 	-1.873460367	2.921879365	-0.061499890
H 	-2.423940872	1.237224259	-0.090048779
H 	-1.566746735	1.919918847	-1.488345552
H 	0.613490227	3.429479702	-0.174197420
H 	1.820567225	2.191413580	0.188691677
Sn	4.597034449	-1.487170041	-1.155662623
Cl	3.102649265	-0.828222270	-2.904982007
Cl	5.322780466	-3.736242582	-1.047127857
Cl	6.572960807	-0.560978614	-2.154925800
Cl	4.661582443	-0.156151195	0.828327865
