10
GO, Rcat=I2
H	-0.62056146	-0.03764738	-0.08023722
C	-0.09659473	-2.02948020	-0.54883449
C	 0.18266548	-0.75219647	-0.26512258
C	 1.55928918	-0.22013974	-0.18291419
O	 1.86635738	 0.93365884	 0.07180470
H	 0.69695300	-2.74612423	-0.73626627
H	-1.10634117	-2.37973861	-0.60012943
H	 2.32514145	-0.94333367	-0.37095895
I	 1.85103070	 2.46611042	 0.80757453
I	 1.82606624	 4.96220362	 2.00601374
