10
GO, R2=H, R1=H, Rcat=I2
H	 0.09039378	-1.80988465	-0.51555853
C	-0.90781845	-0.00771283	-0.04943451
C	 0.18266548	-0.75219647	-0.26512258
C	 1.55928918	-0.22013974	-0.18291419
O	 1.86635738	 0.93365884	 0.07180470
H	-0.82431619	 1.04491294	 0.20242594
H	-1.88982657	-0.42714089	-0.11755322
H	 2.32514145	-0.94333367	-0.37095895
I	 2.11649976	 4.00970191	 1.24030281
I	 2.32639196	 6.59078168	 2.22077896
