35

H 	1.666997178	2.120087669	0.413181259
C 	3.602421122	1.132376287	0.068748008
C 	2.120511227	1.177001339	0.124690153
C 	1.223732940	0.094486338	-0.127001044
O 	-0.038434006	0.244887005	-0.078421206
H 	3.938367686	0.117511211	-0.174050579
H 	5.245713183	1.434157721	1.488875338
H 	3.767518948	0.793726137	2.226317415
C 	4.153525981	1.493807583	1.477914113
H 	3.852289224	2.502122630	1.777915871
C 	0.656204899	-2.350390068	-0.646072597
C 	1.748316701	-1.291958663	-0.464450149
H 	-0.029312308	-2.074682870	-1.453398767
H 	0.059981315	-2.461340239	0.265341803
H 	1.110027417	-3.317798597	-0.886531076
H 	2.357567547	-1.199099053	-1.376374386
H 	2.455118480	-1.588556141	0.325105460
C 	3.787351348	3.542015507	-0.892033715
C 	4.168518182	2.060801896	-1.097584276
C 	3.578842207	1.561822514	-2.436935443
C 	5.704319093	1.920276267	-1.145947412
H 	6.007042343	0.868239267	-1.226582939
H 	4.217515453	4.145116930	-1.700570501
H 	4.175819865	3.936588427	0.053090677
H 	2.703247951	3.692493846	-0.913449798
H 	3.981511505	2.149294840	-3.270322109
H 	2.487643923	1.659465115	-2.455594834
H 	3.837037109	0.510038520	-2.615998796
H 	6.094318227	2.448808213	-2.024419699
H 	6.187748241	2.350966340	-0.263069417
Sn	-1.434795838	2.111471199	0.206708147
Cl	-0.231084520	2.957025778	-1.682518659
Cl	-0.389404746	2.245788471	2.349680908
Cl	-2.891486464	3.991588158	0.469167217
Cl	-3.070123392	0.445415290	-0.154586277
