35

H 	2.021007744	0.847138179	0.319673907
C 	0.000000000	0.000000000	0.000000000
C 	1.501261071	-0.052042807	-0.000000000
C 	2.311593758	-1.237041020	-0.000000000
O 	3.415291073	-1.319481840	0.668038007
H 	-0.429247384	-0.935190955	-0.370982719
H 	-1.644775986	1.252127531	-0.690461146
H 	-0.357857075	1.010429849	-1.897725452
C 	-0.561290783	1.167430978	-0.831844340
H 	-0.101032310	2.119592932	-0.547741763
N 	1.948340257	-2.358590135	-0.690845530
C 	2.703200448	-3.602759561	-0.486567185
C 	1.097448392	-2.321261497	-1.885240380
H 	3.050753242	-3.655287840	0.545284025
H 	3.576948424	-3.648685015	-1.151583963
H 	2.041587467	-4.446831489	-0.707663672
H 	0.173370627	-2.893021371	-1.731452725
H 	1.644864249	-2.767922525	-2.725556167
H 	0.853400943	-1.292251459	-2.147181466
O 	-0.928364700	0.183975879	5.642231476
H 	-0.987122198	-0.714625121	6.013047610
C 	-0.731100854	0.102621030	4.282407615
C 	-0.534991505	1.304764013	3.587343120
C 	-0.321955794	1.279481401	2.213304245
C 	-0.319766387	0.067514124	1.500239739
C 	-0.506431645	-1.127258497	2.215782695
C 	-0.720348948	-1.118046307	3.591090157
H 	-0.535482057	2.240887771	4.139060882
H 	-0.148507996	2.218194492	1.694558981
H 	-0.477875156	-2.078738695	1.687646707
H 	-0.867140299	-2.052784648	4.130800356
B 	3.844560317	-0.326644831	1.870091249
F 	2.784347858	-0.340739828	2.775913937
F 	4.042690215	0.935688341	1.302891528
F 	5.000267945	-0.899215350	2.356165840
