35

H 	1.611495031	2.045831700	0.709919435
C 	3.585729097	1.073785671	0.461256664
C 	2.083783233	1.099317131	0.461105282
C 	1.216794055	0.156270812	-0.186855545
O 	0.116861851	0.512776764	-0.765017878
H 	3.965384438	0.072876326	0.236521438
H 	5.282767394	1.647398612	1.702577414
H 	3.974074147	0.829902141	2.592007941
C 	4.195136333	1.547629277	1.793173514
H 	3.784499065	2.515315622	2.099970998
N 	1.518396837	-1.174959175	-0.249748732
C 	0.705895611	-2.055028249	-1.101113103
C 	2.358582952	-1.852124687	0.743993494
H 	0.366128117	-1.504491668	-1.978459448
H 	-0.175400674	-2.425682987	-0.559150089
H 	1.323503838	-2.907215617	-1.403453280
H 	3.255183399	-2.281050735	0.278579920
H 	1.782036159	-2.667329382	1.200431789
H 	2.649877863	-1.158978051	1.532491410
O 	4.576109043	4.344656109	-4.126884387
H 	4.594637260	3.806532079	-4.938376865
C 	4.362065540	3.524526478	-3.042345159
C 	4.218007518	4.138307276	-1.789651381
C 	3.990803064	3.357308857	-0.661632827
C 	3.922800033	1.955542055	-0.749700328
C 	4.057980917	1.359761610	-2.015045753
C 	4.285296194	2.128139355	-3.153131646
H 	4.269343097	5.221617404	-1.722388873
H 	3.858256038	3.850967813	0.297061691
H 	3.978093357	0.278244750	-2.109897856
H 	4.391614372	1.650731158	-4.126449900
B 	-0.252026333	2.026979324	-1.196343187
F 	0.814898325	2.474390497	-1.974969468
F 	-0.393945558	2.762270626	-0.015808711
F 	-1.429499250	1.878549264	-1.897265206
