8
C3H4O optimized with ADF in AMS.
H        0.09147745879158      -1.80967022950625      -0.51025495849451
C       -0.91317399491572      -0.00518844104622      -0.04952713556178
C        0.17892857348678      -0.75159681085151      -0.26282122182503
C        1.56244455974869      -0.21271667759226      -0.18141421384084
O        1.85591781172128       0.93924051414250       0.07970497569977
H       -0.82332575239070       1.04912076756575       0.20045111986777
H       -1.91237939391048      -0.42665018959728      -0.11843281656025
H        2.36199679746857      -0.96437540311474      -0.38501708928514
