31

H 	1.655173409	1.910815605	-1.034864973
C 	3.429071479	0.814070795	-0.641280887
C 	2.055257548	0.958410329	-0.691979620
C 	1.099684750	0.095547884	-0.039521535
O 	0.029513885	0.595305187	0.481005999
H 	3.917547424	-0.121137492	-0.376228130
H 	2.935918437	2.057610138	1.743814679
H 	4.762680540	1.714976093	1.560126057
H 	3.601843849	0.349987749	2.027274704
C 	3.743412587	1.344165240	1.611998943
N 	1.267981631	-1.247282352	0.084814810
C 	2.154726395	-2.044017261	-0.770904821
C 	0.349119928	-2.019918982	0.937115525
H 	2.482702267	-1.451931418	-1.625767047
H 	1.597219063	-2.913621854	-1.138808338
H 	3.029739176	-2.407223091	-0.215637652
H 	0.909181823	-2.840796982	1.397445312
H 	-0.474214867	-2.437666372	0.342105043
H 	-0.068256855	-1.373387301	1.708023682
O 	4.193383475	1.711041671	-1.311381016
C 	5.631659493	1.475145791	-1.291795620
C 	6.285185871	2.488669293	-2.215812548
H 	5.823401849	0.443856950	-1.622677483
H 	5.989994781	1.583809323	-0.259402518
H 	5.917967692	2.374748533	-3.241460300
H 	7.371295244	2.338977211	-2.214955813
H 	6.074319017	3.509401611	-1.879714364
Al	-0.373161576	2.351570872	0.911537795
F 	-1.909282938	2.266427955	1.580552284
F 	-0.253865134	3.198133215	-0.546571444
F 	0.851583207	2.790453450	1.996552058
