24

H 	2.339351043	0.814949628	0.312439830
C 	4.232259079	-0.174504718	0.348872711
C 	2.881330098	-0.125846919	0.372659620
C 	2.001759081	-1.293347416	0.394792411
O 	0.784644262	-1.215957341	0.028673684
H 	4.734981992	-1.143899181	0.347959705
C 	6.527188422	0.736340299	0.275000730
C 	7.430416549	1.799005442	0.215202378
C 	6.966326069	3.116008264	0.157403980
C 	5.586209036	3.332490226	0.161688907
C 	4.663565474	2.300797967	0.220697989
C 	5.134928750	0.969855384	0.281632991
H 	6.895927835	-0.286086464	0.316745748
H 	8.499991218	1.604975354	0.210605937
H 	7.644555511	3.963167449	0.106928855
F 	5.130234373	4.618289383	0.103256540
H 	3.603752577	2.537349360	0.210219051
N 	2.449057372	-2.493800703	0.815410171
H 	1.810415489	-3.281227727	0.799296321
H 	3.357882697	-2.604833895	1.242706947
Al	-0.159517978	0.151682092	-0.849298391
F 	0.407615598	0.041644091	-2.428086757
F 	0.365183898	1.560193548	-0.066042763
F 	-1.763631065	-0.251426634	-0.592792055
