26

H 	0.213887003	-3.669645965	0.223504858
C 	-1.694085788	-0.398741266	1.948867973
C 	0.345181897	-1.607745780	0.434389620
C 	2.366693327	-0.335505406	-0.762642112
O 	3.923528099	-1.758338714	-2.137153121
H 	-1.321479872	1.624677383	2.092900005
H 	-3.593510004	-0.680287839	5.568953639
H 	-0.256498322	-0.917506836	5.735322609
C 	-1.920886580	-1.464295569	4.640604226
H 	-2.059496375	-3.525971417	4.679374273
C 	-8.234610055	-1.247365057	-2.949211399
C 	-6.667064952	0.865593789	-3.145789009
C 	-4.556367794	1.098951989	-1.593015229
C 	-4.013378335	-0.762070279	0.234158174
C 	-5.578316209	-2.905898206	0.383259197
C 	-7.680960535	-3.131743944	-1.178833273
H 	-7.081334838	2.337325752	-4.518115832
H 	-3.330383642	2.734840288	-1.773436546
H 	-5.194037893	-4.381609619	1.755583621
H 	-8.900991491	-4.776931879	-1.012593786
H 	-9.875626472	-1.435486687	-4.171509867
H 	3.376548654	-3.526637052	-2.191756043
Al	3.275502762	3.499398121	-0.448967552
F 	3.174637802	3.982319672	2.713148961
F 	0.821659750	4.909768688	-1.952800146
F 	6.117493426	3.906425767	-1.802083254
