25

H 	-0.525357328	-2.075561121	0.000102600
C 	0.000000000	0.000000000	0.000000000
C 	-0.873432744	-1.045265215	0.000000000
C 	-2.305639714	-0.892143535	0.000000000
O 	-3.065997074	-1.907428817	0.037419828
H 	-0.396173282	1.016025196	-0.001520738
C 	2.204890384	1.102709709	0.024872793
C 	3.596517906	1.076406781	0.033246277
C 	4.230176594	-0.164836186	0.022022702
C 	3.523960095	-1.370712564	0.002850837
C 	2.135788317	-1.329705615	-0.003994116
C 	1.446140706	-0.091396562	0.007039783
H 	1.688935935	2.060500161	0.033409435
H 	4.188155950	1.987205684	0.048154331
F 	5.590345695	-0.205440298	0.029584823
H 	4.065553186	-2.312338551	-0.005864056
H 	1.581789480	-2.263951194	-0.019286337
C 	-2.981340280	0.457525332	-0.035682906
H 	-2.607742421	1.066101835	-0.866717581
H 	-2.776739778	1.002810665	0.894846114
H 	-4.059023565	0.316817783	-0.136290528
Al	-2.839616902	-3.771121039	0.235812721
F 	-3.182691773	-3.992085932	1.863252863
F 	-1.212709062	-4.054788930	-0.149003003
F 	-3.927546998	-4.402768142	-0.869108235
