25

H 	2.396222410	0.798235350	-0.094901579
C 	4.270557852	-0.174271407	0.258724717
C 	2.922541602	-0.139713267	0.066053877
C 	2.084582968	-1.311209063	0.056781291
O 	0.838835504	-1.215249877	-0.165148548
H 	4.754269345	-1.138663114	0.417578765
C 	6.547896976	0.746561001	0.468303230
C 	7.453305640	1.803532500	0.489172432
C 	6.959888749	3.094788580	0.311602977
C 	5.602131080	3.361764337	0.115477504
C 	4.710036258	2.297564645	0.095599080
C 	5.164112009	0.966396326	0.271528054
H 	6.910700516	-0.269995818	0.604795873
H 	8.517526974	1.645383375	0.638284042
F 	7.833794529	4.137721903	0.330167324
H 	5.268200486	4.386872972	-0.017568240
H 	3.653506743	2.499312484	-0.056080043
C 	2.623297192	-2.700934972	0.297404356
H 	3.203404937	-2.746032983	1.225844190
H 	3.288883896	-2.991645540	-0.525738051
H 	1.790695468	-3.404906613	0.347604629
Al	-0.353370977	0.161807258	-0.661448636
F 	-0.517913769	-0.097984923	-2.310848818
F 	0.464506889	1.599889537	-0.289460882
F 	-1.692851366	-0.135156631	0.298251844
