36

H 	1.391651140	1.929517010	0.988349210
C 	3.396500570	1.109088450	0.512610400
C 	1.909572750	1.043221500	0.618987930
C 	1.041908250	0.082898260	-0.048345360
O 	0.011470840	0.503290630	-0.682566860
H 	3.798403680	0.152851850	0.156758000
H 	5.136188210	1.548172030	1.753007330
H 	3.838276580	0.699679560	2.623408890
C 	4.050171680	1.464432060	1.866890730
H 	3.668115760	2.423271690	2.238765550
N 	1.321940830	-1.248131900	-0.054505100
C 	0.530286260	-2.153309350	-0.901693360
C 	2.231961360	-1.889863260	0.901097400
H 	0.113222470	-1.591893360	-1.737977300
H 	-0.290475680	-2.605964850	-0.327820020
H 	1.186958120	-2.949069620	-1.270802060
H 	3.101932810	-2.317898610	0.386475980
H 	1.698345200	-2.699529550	1.415824280
H 	2.566973580	-1.169350020	1.647673740
C 	3.763608460	2.184176060	-0.592190580
C 	5.248014650	2.231403390	-0.872401550
C 	5.845235160	1.244614310	-1.675861200
C 	7.220066160	1.260097250	-1.927025500
C 	8.022940300	2.267654030	-1.376646580
C 	7.439450770	3.258632510	-0.579452940
C 	6.063019230	3.236894090	-0.327218130
H 	3.220268680	1.935889540	-1.511217790
H 	3.402265600	3.162709260	-0.252565090
H 	5.222681610	0.469473600	-2.121830280
H 	7.663965990	0.493865650	-2.560139600
H 	9.092635270	2.284535180	-1.575439550
H 	8.054498780	4.050491560	-0.156022530
H 	5.613317820	4.013740670	0.289470440
Zn	0.114511380	2.381570680	-1.536806340
Cl	1.034789660	2.043752530	-3.467157990
Cl	-0.506027500	3.906291170	-0.135767470
