36

H 	1.385139156	1.944978499	0.964656058
C 	3.393129314	1.126092865	0.502036403
C 	1.907398044	1.059484054	0.600557542
C 	1.047251532	0.087488352	-0.056563897
O 	0.006323427	0.490164177	-0.682255120
H 	3.795600676	0.169410116	0.149584689
H 	5.124434816	1.559854835	1.755662020
H 	3.815549306	0.719796925	2.616145105
C 	4.037550409	1.481308681	1.859855574
H 	3.656537583	2.442376915	2.226342396
N 	1.349588458	-1.238885516	-0.065040879
C 	0.573195526	-2.153553117	-0.912429019
C 	2.251800916	-1.868824896	0.904146699
H 	0.155299287	-1.599706185	-1.752919824
H 	-0.246492034	-2.613969451	-0.343657024
H 	1.239767937	-2.943293487	-1.276069699
H 	3.131462657	-2.292976712	0.403731458
H 	1.717690544	-2.679767475	1.415929309
H 	2.571675970	-1.143402343	1.651787444
C 	3.769022567	2.197149029	-0.602241334
C 	5.253098721	2.227891158	-0.880823975
C 	5.841057133	1.234522563	-1.682222155
C 	7.217104143	1.230089985	-1.923420858
C 	8.030795300	2.224014187	-1.365947829
C 	7.456712302	3.221837023	-0.571554515
C 	6.078962049	3.220142152	-0.329699676
H 	3.221883371	1.955407730	-1.520218428
H 	3.418590496	3.179186307	-0.262662258
H 	5.210570045	0.468977191	-2.132637975
H 	7.654046613	0.458496324	-2.554127553
H 	9.101764573	2.224603536	-1.556523827
H 	8.080147518	4.003397005	-0.142126658
H 	5.636806419	4.001717073	0.285645819
Zn	0.030406021	2.385882330	-1.501881752
Cl	0.987634394	2.123631857	-3.425653771
Cl	-0.682858757	3.853682313	-0.087535790
