22

C 	0.011909860	0.267552820	0.091441330
C 	0.988866490	-0.770782880	0.548773460
H 	0.540899240	-1.760880400	0.417555520
C 	-1.130699470	0.045934460	-0.746583930
H 	0.203380550	1.311376080	0.335973720
O 	-1.929635710	0.853803030	-1.161810420
C 	1.371656520	-0.588190130	2.032540540
H 	2.150168410	-1.306239460	2.314959800
H 	0.495815250	-0.753232490	2.669910050
H 	1.745500070	0.421904330	2.236215620
F 	-1.298937540	-1.321136700	-1.084391200
C 	4.283019930	-0.499266850	-2.293069160
C 	3.187493120	-1.334595820	-2.544676560
C 	2.140214690	-1.414897110	-1.623670130
C 	2.177962740	-0.672743010	-0.429326990
C 	3.272966720	0.175395760	-0.192232970
C 	4.322097230	0.254193210	-1.113963450
H 	3.147800630	-1.923053470	-3.459275530
H 	1.285633600	-2.057253090	-1.825477580
H 	3.322174580	0.765512580	0.719346580
H 	5.171108420	0.903849510	-0.910056630
H 	5.099157780	-0.436160690	-3.009918780
