24

H 	-0.095331121	0.203620566	-0.168424704
C 	-0.056286607	-1.916864720	-0.020129689
C 	0.478906807	-0.687085230	0.072016684
C 	1.843149753	-0.380600009	0.498199913
O 	2.324988763	0.722843390	0.603739518
H 	0.568902941	-2.771653124	0.239244880
C 	-1.349760812	-3.208156420	-1.680138689
C 	-1.459474559	-2.259263806	-0.452120491
C 	-2.302383721	-1.022838061	-0.820883383
C 	-2.133824908	-3.026189610	0.721375287
H 	-2.227366748	-2.385437588	1.605289999
H 	-2.351534608	-3.532018923	-1.986517682
H 	-0.759598359	-4.100341086	-1.440227681
H 	-0.876449974	-2.698873557	-2.526995468
H 	-3.307680010	-1.336534832	-1.123860380
H 	-1.857319966	-0.469193480	-1.655643949
H 	-2.406409580	-0.339545438	0.029792511
H 	-3.137345518	-3.350439005	0.420958861
H 	-1.555557320	-3.915105396	0.999218684
Cl	2.911722779	-1.820251642	0.904439936
B 	1.254529116	2.793630434	0.164801762
F 	0.252840308	2.554180144	1.019035373
F 	1.069714650	2.526200631	-1.132161853
F 	2.295586966	3.521641171	0.551705352
