23

H 	-1.448082405	0.533672463	-0.766877139
C 	-0.481117342	-1.266368686	-0.111472195
C 	-0.590471432	0.069208428	-0.285245493
C 	0.467052196	0.936371904	0.178426635
O 	0.431754884	2.178588349	0.053745397
H 	0.420744784	-1.635931928	0.385339729
C 	-0.706773634	-3.310856249	-1.474969704
C 	-1.455801721	-2.336658178	-0.520329350
C 	-2.707921856	-1.775116747	-1.221591773
C 	-1.870327327	-3.107499913	0.765909996
H 	-2.400744445	-2.450091427	1.463827279
H 	-1.369932856	-4.141008400	-1.745589348
H 	0.186442426	-3.728361221	-0.995999502
H 	-0.398302368	-2.800070568	-2.393943784
H 	-3.380496864	-2.596089928	-1.493861509
H 	-2.445296773	-1.237766317	-2.140258837
H 	-3.260939806	-1.091351083	-0.567170767
H 	-2.535384165	-3.937009581	0.498006812
H 	-0.995669791	-3.522354514	1.280098371
H 	1.335451984	0.460548122	0.664723800
Sn	2.341385025	3.424770345	0.881351294
Cl	2.183568854	2.076149001	2.950711520
Cl	3.768194111	1.849455799	-0.385000343
