32

H 	1.969889811	0.749977080	0.059558691
C 	0.000000000	0.000000000	0.000000000
C 	1.341142426	-0.134398670	0.000000000
C 	2.052431786	-1.408268310	0.000000000
O 	3.283755311	-1.444423673	0.217860469
H 	-0.641648294	-0.881351539	-0.024628898
C 	-0.704506610	1.315139427	0.149690818
C 	-1.364826789	1.394429497	1.526611291
C 	-0.570495347	1.355202667	2.684638390
C 	-1.160849586	1.425699404	3.948860911
C 	-2.551998223	1.528108134	4.071349030
C 	-3.349047385	1.559809756	2.922705232
C 	-2.756924959	1.490455064	1.656481610
H 	0.008383737	2.139229933	0.021545327
H 	-1.477421183	1.414808663	-0.624055343
H 	0.510743000	1.266158566	2.597637652
H 	-0.534611597	1.399425287	4.837880547
H 	-3.010960767	1.582428890	5.056012230
H 	-4.430438420	1.641026107	3.010017429
H 	-3.380463151	1.519923660	0.764281546
C 	2.244703280	-3.950872340	-0.203599420
C 	1.331925690	-2.720419674	-0.254248722
H 	2.725854333	-4.043434796	0.774956190
H 	3.037558436	-3.883990502	-0.955071240
H 	1.659989450	-4.857421535	-0.392625850
H 	0.524882671	-2.804313659	0.488576166
H 	0.827577075	-2.640806865	-1.228333423
Ti	4.916561240	-0.116279565	0.838577836
Cl	6.507634881	1.325040215	1.475798329
Cl	4.585773784	0.811200531	-1.189550983
Cl	3.541735198	0.311396061	2.585118676
Cl	6.135008041	-1.978058865	0.924381367
