32

H 	2.902286350	0.655423470	0.223299760
C 	4.519709260	-0.456963340	1.006199570
C 	3.274762200	-0.326531280	0.504197480
C 	2.350056000	-1.436651550	0.287554150
O 	1.224621260	-1.238519200	-0.222222150
H 	4.901056870	-1.442383270	1.277417670
C 	5.490355970	0.676831830	1.171622920
C 	6.695859770	0.474907070	0.254071040
C 	6.539010400	0.584850510	-1.137479800
C 	7.629668290	0.394853220	-1.990892860
C 	8.888763110	0.081874030	-1.463084530
C 	9.050582340	-0.038170600	-0.078714860
C 	7.957895190	0.155266410	0.774946480
H 	4.995846950	1.631336030	0.953798940
H 	5.836734390	0.709137950	2.214523750
H 	5.560402610	0.821835550	-1.552688620
H 	7.497067230	0.490688220	-3.066650870
H 	9.737897820	-0.065810910	-2.127195720
H 	10.026706250	-0.278246890	0.338654860
H 	8.090417750	0.067955940	1.852624220
C 	1.610037290	-3.884565960	0.391870990
C 	2.718858980	-2.861743240	0.669969150
H 	1.353028740	-3.907204790	-0.671848990
H 	0.698908600	-3.636765090	0.945918930
H 	1.941356030	-4.884550410	0.693112370
H 	3.638925430	-3.124163510	0.126377560
H 	2.994845260	-2.862235110	1.734914230
Ti	-0.018710020	0.362743410	-1.056965210
Cl	-1.208950620	2.060220590	-1.906950520
Cl	0.148872290	1.229978860	1.018649240
Cl	1.682454530	0.528182390	-2.537470650
Cl	-1.529302280	-1.248539800	-1.365970530
