32

H 	2.945772006	0.612175218	0.503584514
C 	4.552719831	-0.561837721	1.200643356
C 	3.300679515	-0.389175330	0.732339230
C 	2.368244174	-1.468361679	0.424772047
O 	1.313637389	-1.231875482	-0.205153999
H 	4.932152992	-1.564280622	1.401238368
C 	5.540020285	0.554274109	1.367558947
C 	6.636195682	0.438001216	0.307794937
C 	6.304648193	0.542539479	-1.053335462
C 	7.296083477	0.437143402	-2.031954001
C 	8.628964500	0.218104230	-1.662853155
C 	8.964558071	0.105324844	-0.309955265
C 	7.971073573	0.212296876	0.669986998
H 	5.029989274	1.521979351	1.282859434
H 	5.998610833	0.501136313	2.363995146
H 	5.269427658	0.703321247	-1.348364289
H 	7.027441629	0.524854120	-3.082362801
H 	9.400260583	0.135634548	-2.425388454
H 	9.998278535	-0.063122003	-0.015551213
H 	8.236867028	0.128408762	1.722605568
C 	1.555069238	-3.893645708	0.424315945
C 	2.643871107	-2.900704745	0.846596397
H 	1.434839764	-3.906165588	-0.663357422
H 	0.587331272	-3.625077886	0.859237699
H 	1.820072857	-4.902477690	0.758207855
H 	3.617745872	-3.188768666	0.423828647
H 	2.783896105	-2.906184401	1.937426220
Ti	0.337195479	0.410773485	-1.283846538
Cl	-0.570246120	2.153630722	-2.358074814
Cl	0.143312557	1.303704137	0.777228530
Cl	2.290172653	0.460150652	-2.427043830
Cl	-1.158861773	-1.128734662	-1.875390598
