23

H 	2.413791740	0.925479090	-0.387034150
C 	4.087767390	-0.113535480	0.436481030
C 	2.806170140	0.001235660	0.034895850
C 	1.799885540	-1.042902400	0.123441580
O 	0.642176390	-0.968221990	-0.253744390
H 	4.413568650	-1.066123450	0.857394550
C 	4.629440810	2.289025530	-0.203672880
C 	5.145700890	0.954785730	0.370918200
C 	6.304941140	0.406105940	-0.512749790
C 	5.674089460	1.169065170	1.821284020
H 	6.054949900	0.233530250	2.248102200
H 	5.440795920	3.025749890	-0.215680700
H 	3.811101930	2.697051490	0.400691680
H 	4.267145490	2.171123560	-1.231718080
H 	7.128217100	1.130605760	-0.526010190
H 	5.969080660	0.244766210	-1.543666550
H 	6.689888290	-0.543259570	-0.121329320
H 	6.492758470	1.898572740	1.807160490
H 	4.881394020	1.550605370	2.474850860
Br	2.340017530	-2.779315140	0.950888410
Zn	-0.597928450	0.529847100	-1.335760450
Cl	-2.135438250	-0.693731690	-2.148832570
Cl	0.405544730	2.403085710	-1.023290670
