32

H 	2.439414330	0.205797850	1.202348220
C 	4.130286800	-0.303396350	0.024701480
C 	2.906290940	-0.512980310	0.530835720
C 	1.963544860	-1.522743710	0.008916660
O 	0.792507670	-1.137177160	-0.350389730
H 	4.520385810	-0.994356590	-0.727223840
C 	4.482892100	1.783276680	1.433242360
C 	5.024169870	0.884500640	0.303419570
C 	5.105839390	1.702370440	-1.019314080
C 	6.436625000	0.356356000	0.674220260
H 	6.838473640	-0.290506950	-0.116247890
H 	5.170444100	2.620572570	1.600127260
H 	4.391495150	1.229138820	2.375904220
H 	3.501086250	2.199113960	1.180683550
H 	5.762395170	2.569541030	-0.875975100
H 	4.111729550	2.053106650	-1.317363030
H 	5.515995150	1.095163400	-1.836109160
H 	7.128033000	1.197271230	0.807324120
H 	6.410687120	-0.216153670	1.609880380
N 	2.282589400	-2.823175180	-0.115728220
C 	1.344948620	-3.767064750	-0.753622830
C 	3.511294460	-3.426313100	0.425876550
H 	0.557553410	-3.212297680	-1.261734660
H 	0.899464890	-4.420544250	0.007320480
H 	1.898456020	-4.382381110	-1.471985880
H 	4.201773070	-3.687728170	-0.386034620
H 	3.241749870	-4.342456260	0.964237230
H 	4.001150200	-2.733582270	1.109024340
Al	0.201956880	0.624255920	-0.594825400
F 	1.305132070	1.271103670	-1.699619340
F 	0.354669640	1.325104420	0.938453540
F 	-1.367541950	0.432227060	-1.154826690
