32

H 	2.455616090	0.186273542	1.223727056
C 	4.137900732	-0.311765831	0.032956735
C 	2.919853683	-0.529650330	0.548491881
C 	1.973978910	-1.530496225	0.020577684
O 	0.807713601	-1.134057720	-0.338891710
H 	4.526957684	-0.999505357	-0.722110846
C 	4.468849422	1.788735768	1.423090371
C 	5.019184408	0.885513783	0.302061224
C 	5.088737930	1.690569012	-1.028059325
C 	6.436695537	0.378334747	0.676198831
H 	6.845754573	-0.271629933	-0.107574452
H 	5.148182602	2.633726679	1.582494273
H 	4.382431632	1.242843454	2.370524265
H 	3.483894478	2.192849463	1.166526946
H 	5.734935240	2.566785454	-0.895388013
H 	4.090478558	2.025616450	-1.328362062
H 	5.505098931	1.079831340	-1.838637051
H 	7.118236243	1.228245319	0.800160071
H 	6.418359300	-0.184818023	1.617259517
N 	2.283690743	-2.830744950	-0.116254312
C 	1.345372140	-3.757021568	-0.775215144
C 	3.498256450	-3.448490634	0.434518055
H 	0.570623676	-3.188482511	-1.286836005
H 	0.882751034	-4.414196041	-0.028410382
H 	1.901137362	-4.369936588	-1.493465514
H 	4.190796189	-3.722039454	-0.371109166
H 	3.213331546	-4.358887980	0.974265785
H 	3.992452152	-2.760351602	1.118530916
Al	0.233437607	0.631222926	-0.577990940
F 	1.337289428	1.271366378	-1.684065968
F 	0.390650946	1.331123291	0.953582861
F 	-1.337156344	0.455079969	-1.137080111
