29

H 	2.023905929	0.947904455	0.045891757
C 	0.000000000	0.000000000	0.000000000
C 	1.495265554	0.000000000	-0.000000000
C 	2.295678059	-1.182342155	0.000000000
O 	3.560017074	-1.135858877	0.191028973
H 	-0.347651687	-0.592665310	-0.860613353
H 	-1.672519433	1.391154327	-0.164462208
H 	-0.216495173	1.903358224	-1.049897077
C 	-0.579153637	1.426252081	-0.132328995
H 	-0.279358158	2.043144559	0.722067956
C 	1.703461434	-2.552006040	-0.205891424
H 	0.851101521	-2.536594028	-0.891587145
H 	1.342620034	-2.931897895	0.759540843
H 	2.477669800	-3.228832879	-0.575078969
C 	0.030720590	-0.435300982	2.524542860
C 	-0.452892505	-1.074036767	3.668235543
C 	-1.495743711	-2.001823808	3.564495356
C 	-2.055648759	-2.291854734	2.315026139
C 	-1.552532671	-1.641228922	1.194270176
C 	-0.515704398	-0.705504823	1.256129245
H 	0.849809037	0.275947767	2.607066522
H 	-0.013575960	-0.851189838	4.637032248
H 	-1.875373167	-2.503151805	4.451365252
H 	-2.865864396	-3.006830697	2.200797062
F 	-2.101138696	-1.938847987	-0.032099317
B 	4.408264063	0.235885021	0.655813075
F 	4.287819962	1.114013637	-0.410676600
F 	5.667225645	-0.246153230	0.869665225
F 	3.746156535	0.669548197	1.800939608
