23

C 	0.316432419	0.484156457	0.158854928
C 	1.446750976	-0.516988498	0.553946130
H 	1.552051640	-1.221423282	-0.278988524
C 	-1.022359612	-0.187845573	-0.044552354
H 	0.593161221	0.986868242	-0.773373151
H 	0.177551199	1.232185477	0.948943846
H 	0.883798992	-0.655624844	2.671321189
C 	1.083574447	-1.316895313	1.820179027
H 	1.908627245	-1.982795748	2.093696875
H 	0.190238812	-1.929355023	1.653419349
O 	-1.995163441	-0.120041766	0.633820564
I 	-1.037517753	-1.504340635	-1.912270509
C 	5.197787080	1.646111821	0.885900630
C 	4.192521648	1.837693797	1.840761866
C 	2.985008695	1.141304223	1.739843452
C 	2.760165464	0.241939932	0.684512260
C 	3.773902669	0.060275697	-0.267770292
C 	4.985031517	0.754064083	-0.169638565
H 	4.349305282	2.529810954	2.665601827
H 	2.215718656	1.299446531	2.493124091
H 	3.613136676	-0.633169131	-1.091764026
H 	5.760469397	0.596204904	-0.916383190
H 	6.138168301	2.187019526	0.965407696
