27

H 	0.630246135	-1.713121791	0.253719455
C 	-0.686527204	-0.056573116	0.891995297
C 	0.558851458	-0.629282826	0.344094251
C 	1.716919066	0.046905402	-0.129698431
O 	2.715522637	-0.466702842	-0.643878080
H 	-0.570747125	1.028172519	0.981573222
H 	-1.853069309	-0.246171288	2.734679360
H 	-0.102966753	-0.369705066	2.975505272
C 	-0.927633879	-0.645687302	2.310073719
H 	-0.996632831	-1.737769119	2.288079732
Br	1.745976204	2.029621056	0.070688188
C 	-1.522416930	0.287493247	-1.495266042
C 	-1.915487358	-0.280141192	-0.112149768
C 	-3.126629881	0.508761202	0.427234862
C 	-2.279753497	-1.772121974	-0.250288903
H 	-2.597440864	-2.205498501	0.704252488
H 	-2.382239557	0.248210125	-2.174217048
H 	-0.712193687	-0.293265136	-1.950196737
H 	-1.198301512	1.332256047	-1.419177398
H 	-3.951616957	0.446271841	-0.293116934
H 	-2.881715063	1.569098315	0.565977605
H 	-3.493198932	0.110674856	1.379195149
H 	-3.115124802	-1.878313236	-0.953025394
H 	-1.445991369	-2.361946422	-0.645153565
Zn	3.002166172	-2.383113979	-1.635488217
Cl	1.006308407	-2.874963235	-2.277282241
Cl	5.074974021	-2.816212377	-1.446707142
