29

H 	2.535041400	0.216332570	1.267888630
C 	4.062027880	-0.167067280	-0.157895880
C 	2.910725870	-0.443288190	0.488187030
C 	1.927658420	-1.470939560	0.082578600
O 	0.702809510	-1.139781260	-0.012393490
H 	4.386110170	-0.818874840	-0.971005710
C 	6.202441020	1.020060290	-0.527849140
C 	7.079409260	2.083068520	-0.300042450
C 	6.715747280	3.129351220	0.554122420
C 	5.460137310	3.077559510	1.164725880
C 	4.566142870	2.036544070	0.960058180
C 	4.941582010	0.975552240	0.104250320
H 	6.491710390	0.212595320	-1.197822980
H 	8.048963790	2.102862610	-0.792681270
H 	7.375325790	3.972341690	0.741159200
F 	5.094546720	4.107273950	1.992478030
H 	3.589287130	2.072928110	1.435456320
N 	2.295695680	-2.743123830	-0.206063360
C 	1.299564890	-3.687720770	-0.743522760
C 	3.604769550	-3.327067580	0.121733300
H 	0.458637930	-3.131450720	-1.156722710
H 	0.937640870	-4.354611660	0.050534510
H 	1.774396240	-4.291804500	-1.525132330
H 	4.172040150	-3.546978140	-0.792408600
H 	3.445984890	-4.267077830	0.664879560
H 	4.177815730	-2.646060160	0.749670540
Zn	-0.070143120	0.781773040	-0.034547560
Cl	-1.185797070	0.960466250	-1.867097960
Cl	0.549353370	1.865467060	1.747746420
