35

H 	1.786919695	2.254851497	-0.572698673
C 	3.414996151	0.934905999	-0.898712159
C 	2.120588458	1.221443812	-0.581296069
C 	1.140247158	0.230043484	-0.206208560
O 	-0.025662179	0.549069111	0.176935061
H 	3.754233506	-0.097304171	-0.951452619
H 	4.195965580	1.767490199	1.740833322
H 	5.350507558	0.376504419	1.267081210
H 	3.631876928	-0.000431004	1.906565342
C 	4.359934050	0.715476164	1.543882233
C 	0.320420448	-2.160499890	0.236710924
C 	1.453402102	-1.253574009	-0.258590982
H 	-0.584858206	-2.023187227	-0.362158080
H 	0.063474900	-1.938567948	1.277208767
H 	0.628464752	-3.209463901	0.169085154
H 	1.720486319	-1.499224567	-1.296941510
H 	2.369856337	-1.424105726	0.325026855
C 	4.361631207	1.973232093	-1.449100839
C 	5.830167067	1.728437954	-1.153619682
C 	6.484085044	0.594949437	-1.661480532
C 	7.826423462	0.349871036	-1.358838384
C 	8.537582491	1.242887830	-0.548563075
C 	7.898376809	2.382044315	-0.049222702
C 	6.553803172	2.621420578	-0.351462380
H 	4.215782794	1.970528085	-2.543755339
H 	4.058757775	2.968847694	-1.105741735
H 	5.942301025	-0.101108464	-2.300830518
H 	8.318980319	-0.533318139	-1.759883923
H 	9.582702982	1.054538440	-0.313858318
H 	8.444657588	3.084540082	0.576434048
H 	6.059253749	3.505712693	0.046358431
B 	-0.603997619	2.103165221	0.400760339
F 	-1.874800031	1.883191863	0.857780359
F 	-0.530431628	2.700331487	-0.849118687
F 	0.258956427	2.664935334	1.332502480
