64

C 	1.264221581	-0.418202703	3.996452807
C 	2.774793982	-2.427447750	3.285292212
C 	5.377595012	-2.102525727	2.523645033
O 	6.867205078	-3.847261915	2.033751412
H 	9.780683698	-9.534435471	11.573597679
H 	2.189293655	1.414397246	4.172982556
H 	2.063867052	-4.353692416	3.316833575
H 	7.151390275	-12.131809586	-3.598869170
H 	8.174430079	-9.223696031	-2.291859844
H 	9.773660134	-7.072954150	9.309281160
H 	9.136236369	-12.100086130	-0.888655937
C 	-0.371626567	1.189807945	0.073984554
H 	-1.374674391	-0.498942650	-0.508410518
H 	10.323620552	-10.230078145	8.357909749
H 	4.308387744	-4.483768785	8.862242711
H 	-1.478020017	2.740148215	0.832686179
H 	1.375111106	1.644964318	-0.898567040
N 	5.780019372	-9.833572219	2.274310789
C 	5.558410471	-10.800955752	4.662860832
N 	5.816549138	-8.985187877	6.512851345
C 	5.233231369	-11.173214772	-0.092152816
H 	6.086723414	-7.943782618	2.106326628
C 	6.390157041	-9.492488634	9.183582947
H 	6.441765745	-7.287630609	5.883342661
H 	4.870401610	-13.123436869	0.480916231
C 	9.226240358	-9.041648396	9.645905162
C 	7.560973219	-11.144425777	-1.827002260
H 	0.490405189	-13.092458098	0.241899022
H 	6.012503778	-11.509312768	9.424506776
C 	2.820473008	-10.140630661	-1.319139932
C 	2.799476394	-7.945698706	-2.807533203
C 	0.554976639	-7.035859658	-3.855312111
C 	-1.721409296	-8.303485958	-3.436127714
C 	-1.728720401	-10.489177360	-1.958264734
C 	0.518990225	-11.393119442	-0.913202005
H 	4.542453342	-6.918528566	-3.167181401
H 	0.588422165	-5.335311823	-5.014038087
H 	-3.469989263	-7.600885955	-4.262378374
H 	-3.487634751	-11.503815385	-1.624587836
C 	4.536125405	-8.041971956	11.006011975
C 	5.104030605	-8.806807595	13.765634838
H 	3.660287745	-8.026621862	15.027895922
H 	6.932662054	-8.099949755	14.420917271
H 	5.089473157	-10.864241244	13.999896249
C 	1.792485013	-8.826561639	10.393972655
H 	1.532685069	-10.868047587	10.596249356
H 	0.472566061	-7.881894050	11.679331579
H 	1.269851868	-8.323084043	8.460311853
C 	4.770352158	-5.141963474	10.766838070
H 	6.666617113	-4.465262225	11.242356450
H 	3.447739987	-4.212790997	12.061744381
C 	-5.805871449	-0.842168428	7.966302277
C 	-4.986095840	-2.907158468	6.536512663
C 	-2.711264640	-2.799499165	5.219781735
C 	-1.191671366	-0.614756254	5.300253889
C 	-2.056836949	1.456033620	6.732306771
C 	-4.330020025	1.343043191	8.057042919
H 	-6.128806047	-4.614234626	6.447445827
H 	-2.132789218	-4.426245503	4.108515853
H 	-0.922791647	3.170038062	6.820004973
H 	-4.950434176	2.962769121	9.161901137
H 	-7.584130453	-0.935873616	8.994800649
H 	6.055774954	-0.111140217	2.422604873
S 	4.993456078	-13.874592988	5.289237730
