64

C 	1.248616317	-0.471691080	4.038021869
C 	2.791926824	-2.418360794	3.235553752
C 	5.451001443	-2.074876161	2.722886777
O 	6.944849654	-3.787124292	2.171660734
H 	9.968845240	-9.704080116	11.618611919
H 	2.172540873	1.309995547	4.499181694
H 	2.057411350	-4.319643955	2.999059894
H 	6.833017892	-12.088041243	-3.566115473
H 	7.938043463	-9.203252237	-2.278249167
H 	10.070674379	-7.252021763	9.348922966
H 	8.885643907	-12.099457872	-0.910594655
C 	0.010129575	1.613251275	0.218618976
H 	-0.941886120	0.033502388	-0.670303223
H 	10.485102676	-10.430354759	8.406469380
H 	4.698640359	-4.432767552	8.939312451
H 	-1.154333874	3.077474646	1.053428735
H 	1.847021451	2.151016043	-0.512312840
N 	5.644556320	-9.775979376	2.338039837
C 	5.568178031	-10.766438733	4.722469351
N 	6.038929482	-8.997202132	6.562323922
C 	5.024575804	-11.108674710	-0.006558502
H 	6.053366366	-7.910227810	2.156673637
C 	6.587760505	-9.525160487	9.224506270
H 	6.656137901	-7.301105094	5.931247256
H 	4.654670306	-13.053453300	0.579232200
C 	9.439272095	-9.193559510	9.690025542
C 	7.303912924	-11.113803295	-1.803433274
H 	0.270338588	-12.934267895	0.536593270
H 	6.129658446	-11.525161429	9.463060799
C 	2.589540520	-10.062042016	-1.174012915
C 	2.552367755	-7.911125335	-2.719854050
C 	0.291602372	-6.998627934	-3.724102171
C 	-1.984910496	-8.219943774	-3.202737335
C 	-1.976353211	-10.361999264	-1.666870250
C 	0.286452150	-11.267845227	-0.664222821
H 	4.297595310	-6.925021400	-3.165065229
H 	0.314169085	-5.334557860	-4.933207319
H 	-3.746105556	-7.519134872	-3.999079262
H 	-3.736676730	-11.342147160	-1.255375092
C 	4.796247529	-8.008746792	11.058192264
C 	5.334614174	-8.814132022	13.811290414
H 	3.918097128	-7.994719090	15.077942900
H 	7.185507391	-8.177972295	14.473302917
H 	5.247433115	-10.870564740	14.028952338
C 	2.023267231	-8.673613405	10.446038900
H 	1.678106505	-10.702925567	10.634656489
H 	0.746838832	-7.683878021	11.740495229
H 	1.515840145	-8.133783884	8.519427872
C 	5.148394118	-5.121552127	10.835289903
H 	7.073265105	-4.525950552	11.299618893
H 	3.874662188	-4.148416135	12.145499745
C 	-6.138374864	-1.207402637	7.310502758
C 	-5.198720699	-3.127947171	5.764133918
C 	-2.818431008	-2.915149402	4.672180924
C 	-1.308953137	-0.768045527	5.102456803
C 	-2.291318041	1.154998869	6.654575306
C 	-4.670991228	0.936140653	7.753370167
H 	-6.331069103	-4.804875281	5.404196838
H 	-2.147004815	-4.429068206	3.461472154
H 	-1.165143542	2.836982733	7.016038188
H 	-5.382104352	2.441816698	8.958144705
H 	-8.000629265	-1.382724019	8.161935928
H 	6.160147967	-0.098964711	2.891583554
S 	4.928024802	-13.818790170	5.344644236
