27

H 	1.543601820	-1.481845660	-0.038157639
C 	0.000000000	0.000000000	0.000000000
C 	0.476737888	-1.286102631	0.000000000
C 	-0.314698423	-2.479819074	0.000000000
O 	0.087895895	-3.631059426	-0.088439617
H 	-1.065688840	0.147978447	0.153377596
H 	0.319404526	-0.170265111	-2.789671252
H 	-0.735044597	1.323427165	-2.409214388
H 	-1.485374717	-0.390948840	-2.372173618
C 	-0.611190972	0.247291645	-2.425503065
Cl	-2.132552454	-2.252102044	0.127641871
C 	2.356759124	3.563144373	0.239426382
C 	0.979900498	3.598899886	0.488802800
C 	0.225145118	2.430032774	0.395874860
C 	0.833050139	1.200222068	0.064718948
C 	2.221978811	1.180615134	-0.186578165
C 	2.973080578	2.350340700	-0.099400967
H 	0.496920970	4.536827739	0.752770115
H 	-0.846317393	2.457391089	0.585245584
H 	2.712682079	0.251255951	-0.462480865
H 	4.041746085	2.320881770	-0.298749933
H 	2.947238161	4.474051567	0.306131739
Sn	2.369137033	-4.580714850	-1.073175907
Cl	1.746205227	-3.060162341	-2.779240825
Cl	1.065204694	-6.510033297	-0.813233709
Cl	4.373676494	-5.462759296	-1.986617596
Cl	3.193651846	-3.537768520	0.881994430
