27

H 	1.207776680	2.128103060	-0.641354840
C 	3.029291590	1.008833080	-0.729334150
C 	1.668016830	1.145729800	-0.608126720
C 	0.727288690	0.084441930	-0.396669410
O 	-0.481862950	0.184629170	-0.241704590
H 	3.432729410	0.003196170	-0.818239960
H 	3.028633260	1.523257240	2.031907990
H 	4.749831440	1.008567670	1.524564400
H 	3.408853560	-0.280313410	1.740897350
C 	3.704277260	0.759905700	1.664404900
Cl	1.426759830	-1.616832470	-0.337004080
C 	5.797710710	4.143342170	-1.652451830
C 	6.155044440	2.800595950	-1.824610530
C 	5.245116130	1.791039490	-1.508782920
C 	3.954766040	2.103861400	-1.028776220
C 	3.610032030	3.462523270	-0.857701810
C 	4.523205080	4.468979140	-1.166037040
H 	7.142635810	2.542483900	-2.201047900
H 	5.525287380	0.746754470	-1.637242850
H 	2.631404570	3.730960770	-0.467823050
H 	4.245050760	5.511331060	-1.025171180
H 	6.507536220	4.932286130	-1.891720010
Sn	-2.047170820	2.288841300	0.271961910
Cl	-0.411790660	2.489699230	1.976639780
Cl	-3.535584550	0.480777940	0.388288000
Cl	-3.456090280	4.124339870	0.802786900
Cl	-1.268662790	2.921724860	-1.869324100
