29

H 	1.997917134	0.954295097	-0.005415520
C 	0.000000000	0.000000000	0.000000000
C 	1.479301198	0.000000000	-0.000000000
C 	2.259398578	-1.181368757	0.000000000
O 	3.522757171	-1.239205421	0.045832200
H 	-0.356275067	-1.034695187	-0.109050885
H 	-1.597536571	0.795522346	-1.270633949
H 	-0.108508321	0.405773318	-2.147491505
C 	-0.505631920	0.823905878	-1.216826981
H 	-0.183090211	1.867729404	-1.153401275
H 	1.722905860	-2.144462869	-0.040967646
C 	-0.047600519	-0.435388319	2.507892885
C 	-0.578186569	0.506591687	1.402932921
C 	-2.117720835	0.420112117	1.366660580
C 	-0.142284275	1.954465680	1.709202502
H 	-0.492528705	2.657450427	0.945652303
H 	-0.484820041	-0.165193057	3.476090198
H 	1.042048692	-0.369430222	2.603220047
H 	-0.313701759	-1.479809318	2.300144926
H 	-2.519452359	0.642999844	2.362711573
H 	-2.455798476	-0.585691637	1.086775639
H 	-2.557136911	1.139190337	0.667797635
H 	-0.572452173	2.269861622	2.667290046
H 	0.945807881	2.044293020	1.793615403
Sn	5.148720892	0.520202432	0.295603155
Cl	4.229749314	1.264853726	-1.774532518
Cl	6.572658629	-1.358665340	0.302575079
Cl	6.782063931	2.241468177	0.563110025
Cl	3.872926866	0.995252030	2.260337206
