29

H 	1.565326960	2.351158800	0.366101290
C 	3.523451990	1.319213680	0.238301750
C 	2.044180610	1.380816150	0.267793850
C 	1.215590500	0.234534690	0.190057350
O 	-0.050984850	0.227104770	0.188607650
H 	3.836089760	0.264404840	0.232339100
H 	5.172310300	1.901905080	1.558439320
H 	3.678288720	1.486513700	2.416156940
C 	4.081788140	1.985172520	1.528697920
H 	3.807100830	3.043585860	1.583016790
H 	1.714754640	-0.747660880	0.125190450
C 	3.527197170	1.145669740	-2.302094170
C 	4.107851150	1.947913410	-1.113281050
C 	5.644276720	1.800466610	-1.108837270
C 	3.727103690	3.435788100	-1.261799590
H 	4.112580180	4.041438750	-0.433757810
H 	3.967332910	1.494050690	-3.244110830
H 	2.440000620	1.267391720	-2.374569060
H 	3.749522470	0.075006180	-2.203764510
H 	6.043538670	2.109888390	-2.083025400
H 	5.947553900	0.759341820	-0.938147750
H 	6.118267300	2.428169950	-0.346589340
H 	4.160589830	3.832712000	-2.187895750
H 	2.642161700	3.576209060	-1.321696690
Sn	-1.630831210	2.046226780	0.181042590
Cl	-0.593689470	2.563770360	2.266134590
Cl	-3.111942240	0.211921490	0.060823340
Cl	-3.220798820	3.828409430	0.153941830
Cl	-0.422904740	2.672473940	-1.785492800
