29

H 	0.239424229	-2.333736742	0.702626876
C 	-0.590749399	-0.298019296	1.083778433
C 	0.431522011	-1.263776132	0.617848623
C 	1.654638361	-0.883213573	0.021194230
O 	2.480323920	-1.739725426	-0.415576328
H 	-0.125554889	0.696148266	1.153036218
H 	-1.788614297	0.037047613	2.886847482
H 	-0.252806010	-0.788336219	3.185698884
C 	-1.094913196	-0.709147821	2.489854489
H 	-1.603153665	-1.678963527	2.465830039
H 	1.882266445	0.189221004	-0.071476851
C 	-1.145083829	0.396324536	-1.313549503
C 	-1.765706337	-0.126016773	0.001698328
C 	-2.772535734	0.917835547	0.526451320
C 	-2.488108089	-1.463197085	-0.261942609
H 	-2.935899222	-1.874502349	0.649327891
H 	-1.933959337	0.590964338	-2.049358567
H 	-0.449241607	-0.325486864	-1.755637638
H 	-0.600926564	1.335141067	-1.151730614
H 	-3.510382786	1.137599147	-0.254963248
H 	-2.272590944	1.858815449	0.788272987
H 	-3.320799821	0.561609485	1.404431705
H 	-3.298241785	-1.306651453	-0.984204068
H 	-1.811240443	-2.214502212	-0.684513277
Sn	4.405540025	-1.077128367	-1.696648274
Cl	4.789660573	0.359933156	0.164021606
Cl	2.689932969	-0.342172457	-3.180942029
Cl	6.294361003	-0.454638207	-3.015857004
Cl	4.847874399	-3.384910843	-1.478023799
