29

H 	1.570883885	2.337826513	0.410896262
C 	3.529963643	1.318422771	0.252139070
C 	2.052183300	1.371275726	0.293416911
C 	1.227513480	0.224852623	0.194332005
O 	-0.037871388	0.217232848	0.178093843
H 	3.848757583	0.265933103	0.244785871
H 	5.187011368	1.920891901	1.552413393
H 	3.705660447	1.496128306	2.426005943
C 	4.096023703	1.993673785	1.532281449
H 	3.812377769	3.049320401	1.584995141
H 	1.727450323	-0.755872964	0.121575370
C 	3.500398694	1.142918990	-2.287482921
C 	4.093228332	1.946197502	-1.107194370
C 	5.628731772	1.801485121	-1.122931827
C 	3.706009220	3.432602626	-1.251458482
H 	4.101281546	4.040016049	-0.430071642
H 	3.924230773	1.495856295	-3.234781213
H 	2.412107457	1.257257449	-2.345120088
H 	3.731114742	0.073791532	-2.195174234
H 	6.014624572	2.111542415	-2.101776021
H 	5.934570619	0.760722830	-0.956950754
H 	6.112144423	2.428389639	-0.366709423
H 	4.124776467	3.829677903	-2.183883266
H 	2.620453049	3.569484704	-1.295844575
Sn	-1.600602354	2.049990914	0.155086337
Cl	-0.604122621	2.543576883	2.264085401
Cl	-3.095408301	0.233968742	-0.004318930
Cl	-3.172597134	3.846930423	0.110746931
Cl	-0.355187939	2.679502600	-1.785573442
