29

H 	1.941815339	0.917343866	-0.095135338
C 	0.000000000	0.000000000	0.000000000
C 	1.376558766	0.000000000	-0.000000000
C 	2.162749387	-1.211061728	0.000000000
O 	3.408594069	-1.249046675	-0.145558448
H 	-0.491334974	-0.955008159	0.167863664
H 	0.418416300	0.183757068	-2.720072875
H 	-1.418948206	0.005782229	-2.410476128
H 	-0.301007457	-1.482795104	-2.313830791
C 	-0.417514258	-0.405623006	-2.361204014
O 	1.466343056	-2.358677408	0.177321946
C 	2.242689035	-3.595175915	0.139275077
H 	2.984980067	-3.598017650	0.942148628
H 	2.746742268	-3.693188165	-0.826292297
H 	1.509310796	-4.389761085	0.281098107
C 	-2.242275538	0.932013548	0.477490020
C 	-3.148020338	1.977592584	0.635083932
C 	-2.724170168	3.299716838	0.448896506
C 	-1.394627815	3.563520732	0.107405770
C 	-0.510148584	2.502221473	-0.040021179
C 	-0.887611302	1.157274007	0.138256020
H 	-2.571339168	-0.095949494	0.615622745
H 	-4.180815474	1.765910482	0.899395464
H 	-3.423371108	4.123893680	0.565502553
H 	-1.033102096	4.576190938	-0.048857586
F 	0.778758156	2.800491005	-0.387140198
Zn	4.591186342	0.084248197	-1.243596248
Cl	3.335410411	0.642473357	-2.917276334
Cl	6.493125161	0.270476254	-0.277730470
