31

H 	0.740060008	-2.015753685	-0.041689553
C 	0.000000000	0.000000000	0.000000000
C 	-0.123749162	-1.367749257	-0.000000000
C 	-1.401392484	-2.039649121	-0.000000000
O 	-1.565408182	-3.279333313	-0.108784473
H 	-0.907147799	0.582304971	0.141277932
H 	0.498597794	-0.174213014	-2.723484518
H 	-0.153742751	1.535336818	-2.346250077
H 	-1.326447566	0.086579139	-2.469298551
C 	-0.313315752	0.464494079	-2.398238467
O 	-2.484391398	-1.239281261	0.127880831
C 	-3.785350271	-1.906773034	0.094827469
H 	-3.871808671	-2.599871550	0.935835958
H 	-3.902033565	-2.455763135	-0.843288917
H 	-4.513800072	-1.099207292	0.174306873
C 	1.149492252	2.124898652	0.542846255
C 	2.281894942	2.917597065	0.711362985
C 	3.551738738	2.378773914	0.468614674
C 	3.678238914	1.048823256	0.056523042
C 	2.533141061	0.278047898	-0.099123208
C 	1.236048379	0.771919956	0.140137965
H 	0.162041768	2.542728027	0.728336255
H 	2.178118555	3.951218739	1.030971731
H 	4.442253841	2.989290057	0.595459316
H 	4.647036698	0.601565988	-0.148244503
F 	2.693322432	-1.010922668	-0.526729813
Sn	-0.200812259	-4.984596834	-1.015319220
Cl	1.123174163	-4.623676242	0.925490075
Cl	-0.005345055	-3.438499589	-2.822654481
Cl	1.116672011	-6.736570058	-1.976151460
Cl	-2.240552062	-6.161388649	-0.795458740
