31

H 	-1.187303640	-1.460360820	1.121873660
C 	-0.010542430	-0.119331180	-0.072996560
C 	-0.213809500	-1.029407360	0.936532720
C 	0.826956650	-1.424618710	1.856493360
O 	0.665751570	-2.166709650	2.857336830
H 	1.013486220	0.190193540	-0.268862920
H 	-1.087839340	1.733611890	1.687300760
H 	-0.145177280	2.653688590	0.361577610
H 	0.770795840	1.829695950	1.764860100
C 	-0.147097280	1.973673060	1.206199650
O 	2.058577800	-0.929774290	1.587102180
C 	3.123727120	-1.297728830	2.520676460
H 	3.282599680	-2.379531000	2.498268140
H 	2.858593100	-0.987321690	3.535069770
H 	4.004366690	-0.764058490	2.160501500
C 	-0.466299900	0.897142480	-2.282948100
C 	-1.303236910	1.283694440	-3.326633000
C 	-2.681347640	1.047717530	-3.236013560
C 	-3.211168750	0.429231700	-2.098454660
C 	-2.354553430	0.049231070	-1.071667920
C 	-0.961275800	0.258506930	-1.120893410
H 	0.604370480	1.082807070	-2.349050410
H 	-0.886421960	1.768523900	-4.206180730
H 	-3.344799160	1.347777540	-4.043803330
H 	-4.276250700	0.239834620	-1.995179290
F 	-2.913238210	-0.531752830	0.037221320
Sn	-1.282456510	-2.816040360	4.043865870
Cl	-1.758313380	-4.066143450	2.075829710
Cl	-1.699143910	-0.463982200	4.033716560
Cl	-3.221375390	-3.454938720	5.294472030
Cl	0.381138190	-3.632794220	5.514286200
