31

H 	1.911034742	0.909376325	0.189893164
C 	0.000000000	0.000000000	0.000000000
C 	1.348825282	-0.000000000	0.000000000
C 	2.187180203	-1.206595212	0.000000000
O 	3.170789677	-1.293580087	0.811307938
H 	-0.524526038	-0.949377206	-0.112938022
C 	-2.615975207	3.344387221	0.522904486
C 	-3.125562146	2.084238904	0.194122742
C 	-2.257709377	1.002772454	0.035354073
C 	-0.864608567	1.161644409	0.190858385
C 	-0.366536249	2.437742250	0.535206811
C 	-1.234489305	3.514426051	0.696111400
H 	-4.196623975	1.943584329	0.067675208
H 	-2.655336117	0.020320034	-0.213681296
H 	0.698192149	2.581657712	0.697792311
H 	-0.837219976	4.489678398	0.968077818
H 	-3.289115432	4.188681036	0.653640556
N 	1.958564538	-2.242859745	-0.838142559
C 	2.729969986	-3.488358571	-0.683540935
C 	1.105303275	-2.175111428	-2.032380566
H 	3.143464743	-3.537754788	0.322701000
H 	3.551593705	-3.521518709	-1.410933110
H 	2.060652757	-4.336646005	-0.862473484
H 	0.212457511	-2.800449166	-1.906273909
H 	1.673304543	-2.549987480	-2.892398789
H 	0.802954867	-1.146658100	-2.224200234
Sn	3.372827330	-0.544829960	2.964572280
Cl	3.665725947	1.637971245	2.020639471
Cl	5.211491131	-2.042745328	2.913634940
Cl	3.610430519	0.163862194	5.247466554
Cl	1.183852785	-1.474916280	3.228528854
