27

H 	  2.092060	 -0.455406	 -0.034989
C 	  0.000000	  0.000000	  0.000000
C 	  1.078190	 -0.846234	  0.000000
C 	  1.037947	 -2.277410	  0.000000
O 	  1.984506	 -3.039857	 -0.103899
H 	 -0.986771	 -0.437662	  0.135396
H 	 -1.506546	  0.575012	 -2.355985
H 	 -0.776105	 -1.141803	 -2.484201
H 	  0.299845	  0.357367	 -2.776194
C 	 -0.638671	 -0.068105	 -2.443167
I 	 -0.983202	 -3.256354	  0.187690
C 	  0.111788	  4.266367	  0.284576
C 	  1.287543	  3.565596	 -0.019102
C 	  1.271669	  2.176599	 -0.120057
C 	  0.073303	  1.457256	  0.079360
C 	 -1.103909	  2.177259	  0.376287
C 	 -1.084146	  3.567138	  0.484672
H 	  2.217301	  4.107033	 -0.177296
H 	  2.189708	  1.649127	 -0.364336
H 	 -2.033764	  1.632149	  0.527226
H 	 -1.998895	  4.105731	  0.720921
H 	  0.129469	  5.350958	  0.363374
Sn	  4.363163	 -2.668471	 -1.276476
Cl	  2.912055	 -1.726002	 -2.891569
Cl	  4.269904	 -4.990213	 -0.972125
Cl	  6.463646	 -2.388662	 -2.339955
Cl	  4.644697	 -1.319750	  0.646201
