27

H 	1.186001670	2.135835620	-0.742401870
C 	3.027372560	1.040579030	-0.804202040
C 	1.662190040	1.158540650	-0.730288200
C 	0.726012170	0.083708950	-0.578797570
O 	-0.477991130	0.168945670	-0.397764340
H 	3.441881820	0.037272230	-0.878662420
H 	4.682808180	0.704524040	1.492499160
H 	3.024123970	-0.109660890	1.782706360
H 	3.188631990	1.748357160	1.897965210
C 	3.610264650	0.788157320	1.625748090
I 	1.546483670	-2.015504170	-0.676211560
C 	5.840899800	4.175976280	-1.566643980
C 	4.514963620	4.502596200	-1.247063120
C 	3.584430450	3.497274530	-0.991274530
C 	3.962304700	2.137797480	-1.051208350
C 	5.302473470	1.824937660	-1.370661550
C 	6.231142130	2.832648130	-1.630086080
H 	4.209620980	5.545528250	-1.195389430
H 	2.563155300	3.768563860	-0.736970570
H 	5.606286480	0.780359690	-1.416638200
H 	7.257642660	2.573322520	-1.879774580
H 	6.564205610	4.964495100	-1.763418220
Sn	-2.023298580	2.206722660	0.413290830
Cl	-0.296452730	2.265188280	2.035190520
Cl	-3.486033830	0.373631120	0.457586120
Cl	-3.413895500	3.975187300	1.167310650
Cl	-1.348767200	3.027916120	-1.701986440
