67

C 	0.000000000	0.000000000	0.000000000
C 	-0.714073295	-1.309859700	-0.000000000
C 	-0.094746266	-2.596676331	0.000000000
O 	-0.792725782	-3.649631297	0.105945412
H 	-4.842622875	-4.105478396	4.137407156
H 	0.958693627	-0.112122269	-0.523255188
H 	-1.794029374	-1.307151053	0.075795105
H 	-4.109338006	-3.791748325	-4.240126613
H 	-2.947710149	-4.590711852	-3.164952083
H 	-3.359277776	-4.638548506	3.321655384
H 	-4.684813007	-4.655264325	-2.788742847
C 	0.337376507	0.416882358	1.475598959
H 	-0.584824801	0.577822978	2.040286420
H 	-4.913125869	-4.692861206	2.467375091
H 	-1.312596097	-2.171205077	2.743422451
H 	0.910415330	1.350593098	1.466246048
H 	0.925083595	-0.357897631	1.980086135
N 	-3.487075943	-3.045783916	-0.970991690
C 	-4.113138822	-2.499855509	0.113567988
N 	-3.493762465	-2.787419152	1.299517454
C 	-3.778796220	-2.723023566	-2.375722512
H 	-2.588078646	-3.498247716	-0.781285706
C 	-4.107496683	-2.690910375	2.632789381
H 	-2.644238210	-3.349469440	1.227969022
H 	-4.750636245	-2.222368304	-2.365473255
C 	-4.313403308	-4.116184051	3.179834204
C 	-3.886242718	-4.023487992	-3.192672069
H 	-4.184370470	-0.190994772	-3.288695904
H 	-5.088466818	-2.233024838	2.469597597
C 	-2.747524752	-1.756444421	-2.951126067
C 	-1.391460122	-2.113353121	-3.054691239
C 	-0.456295705	-1.218240365	-3.581389573
C 	-0.864084091	0.047866393	-4.016830427
C 	-2.209729787	0.409261247	-3.922868722
C 	-3.141773748	-0.485722661	-3.386743606
H 	-1.062501044	-3.096530499	-2.726129916
H 	0.589874344	-1.509655884	-3.654572117
H 	-0.136833798	0.750076463	-4.416413529
H 	-2.530448980	1.397853206	-4.240039413
C 	-3.299631338	-1.725838546	3.567644405
C 	-3.961838059	-1.684733476	4.963771441
H 	-3.495064811	-0.903951087	5.576744124
H 	-3.853635678	-2.634225842	5.498959410
H 	-5.032169322	-1.454212639	4.886252012
C 	-3.346548228	-0.305944270	2.962876332
H 	-4.378142052	0.052556010	2.877259009
H 	-2.785806703	0.397393268	3.591199069
H 	-2.910814382	-0.291419413	1.961339046
C 	-1.828203279	-2.173620947	3.710088089
H 	-1.747522370	-3.178879753	4.139798642
H 	-1.288176848	-1.486187662	4.372894121
S 	-5.506754500	-1.532490329	0.005703769
C 	1.414309706	-2.721284306	-0.151895903
H 	1.694925040	-3.775488736	-0.096341692
H 	1.944170246	-2.161846894	0.629162462
H 	1.736929269	-2.310998313	-1.118325297
C 	-2.090741083	3.338147250	-1.835986538
C 	-0.704732288	3.199343904	-1.967567418
C 	-0.055308872	2.103734436	-1.392363682
C 	-0.771511898	1.131049414	-0.678403062
C 	-2.160941464	1.275545865	-0.560359006
C 	-2.814777370	2.370763758	-1.133234355
H 	-0.129998439	3.940385502	-2.519655359
H 	1.023462644	1.999039566	-1.501542859
H 	-2.759305081	0.535991613	-0.036516335
H 	-3.894692579	2.455885852	-1.035844122
H 	-2.601305559	4.188676876	-2.282768219
