67

C 	-1.791148290	0.932842590	1.437809700
C 	-0.642660660	0.020909440	1.157680010
C 	-0.285974740	-1.136832580	1.916121580
O 	0.641574630	-1.906767480	1.521893300
H 	0.896396470	-3.713234390	-3.900476700
H 	-1.970654540	0.965965250	2.520936450
H 	-0.058072910	0.195784920	0.263424280
H 	5.201713110	1.057786650	1.535182920
H 	4.305892420	-0.407268330	1.977530030
H 	0.784090720	-3.972116530	-2.147745790
H 	5.178312060	-0.342969000	0.429340410
C 	-3.095352130	0.355497940	0.779942800
H 	-2.980047830	0.312896010	-0.307020110
H 	2.237449360	-3.231230220	-2.845999010
H 	-1.443943490	-2.072988800	-0.746868700
H 	-3.941361360	1.010397390	1.017212180
H 	-3.310270550	-0.653977110	1.148020550
N 	2.524539970	-0.285807910	-0.096960450
C 	1.933075760	-0.307186020	-1.330069180
N 	1.023067640	-1.321041190	-1.476142390
C 	3.339431220	0.818517000	0.437808800
H 	2.134918510	-0.937743460	0.591278300
C 	0.552855290	-1.873938900	-2.757656560
H 	0.881942710	-1.904892750	-0.649351240
H 	3.651629560	1.400824680	-0.433722380
C 	1.145857020	-3.286260740	-2.923980960
C 	4.584450700	0.243375520	1.139151560
H 	2.681874360	3.432137800	0.051306210
H 	0.975590150	-1.220967170	-3.528558440
C 	2.521537300	1.727336440	1.353781410
C 	1.984183160	1.251849340	2.564125420
C 	1.245024500	2.095971580	3.397687610
C 	1.033589470	3.431477300	3.035515500
C 	1.562181690	3.912701000	1.835040460
C 	2.293804940	3.062571340	0.998204280
H 	2.149123470	0.219023090	2.863211680
H 	0.838367160	1.713383720	4.332312300
H 	0.456067750	4.090022300	3.679726870
H 	1.383955750	4.942692970	1.537006300
C 	-1.009006320	-1.785438020	-2.882032540
C 	-1.458679080	-2.411382450	-4.223311910
H 	-2.527216740	-2.221679240	-4.384504720
H 	-1.308420240	-3.496437970	-4.241945170
H 	-0.909622090	-1.973582680	-5.067267760
C 	-1.414515540	-0.294940290	-2.875746380
H 	-0.947061920	0.245399550	-3.706573660
H 	-2.503770010	-0.192890020	-2.963799110
H 	-1.099277040	0.192114460	-1.949868540
C 	-1.714143240	-2.512520950	-1.713857700
H 	-1.465970840	-3.580243190	-1.687960520
H 	-2.802885490	-2.427908530	-1.821652650
S 	2.264799940	0.825818170	-2.552256740
C 	-1.001280190	-1.444152140	3.225177900
H 	-0.605156040	-2.372336500	3.643336310
H 	-2.083977700	-1.544917410	3.075964990
H 	-0.849285560	-0.627400890	3.944193460
C 	-1.366643060	5.038450090	0.070169120
C 	-2.018506770	4.745902080	1.273471630
C 	-2.121210810	3.421069100	1.707764690
C 	-1.578175300	2.368532950	0.954774840
C 	-0.920008620	2.674083470	-0.245091650
C 	-0.815560060	3.998088130	-0.684119910
H 	-2.443402130	5.547471020	1.875025660
H 	-2.626219650	3.199921530	2.647689710
H 	-0.463098370	1.896015610	-0.849833090
H 	-0.292306290	4.210775820	-1.614003280
H 	-1.283076690	6.068213760	-0.272224380
