29

H 	1.925254836	0.927721246	-0.060094184
C 	0.000000000	0.000000000	0.000000000
C 	1.373676904	0.000000000	0.000000000
C 	2.193371546	-1.199981471	-0.000000000
O 	3.432670821	-1.193771167	-0.278001693
H 	-0.523770441	-0.945326410	0.134492953
H 	-0.010046177	0.570540550	-2.680999888
H 	-1.589826663	-0.330210425	-2.256293024
H 	0.005061391	-1.276044810	-2.490259134
C 	-0.509909206	-0.332139287	-2.352699317
N 	1.637920969	-2.409441787	0.295242621
H 	2.263536092	-3.206213913	0.337247525
H 	0.747270747	-2.478109896	0.768329911
C 	-2.200603000	0.958036721	0.625563177
C 	-3.081876971	2.016549650	0.833342108
C 	-2.665541859	3.329086597	0.578925387
C 	-1.369158305	3.571416660	0.115367659
C 	-0.507867924	2.498525771	-0.077874340
C 	-0.877232745	1.163756776	0.174542941
H 	-2.526692814	-0.062339176	0.818683951
H 	-4.090177696	1.821082014	1.188980592
H 	-3.345928739	4.162552028	0.734265253
H 	-1.015952415	4.575719172	-0.101847197
F 	0.743135156	2.770091535	-0.556185990
Sn	4.777665999	0.345276646	-1.363975663
Cl	4.472535087	1.674035643	0.593249931
Cl	3.051717923	0.301640014	-3.018937708
Cl	6.202679403	1.890430884	-2.522759767
Cl	6.288397845	-1.474088750	-1.268949867
