29

H 	1.581985378	1.928796842	-0.939744623
C 	3.482359219	1.175747841	-0.313341659
C 	2.116749025	1.125206902	-0.453136684
C 	1.276065002	0.069651950	0.086223080
O 	0.014693156	0.173402873	0.192820516
H 	3.996990535	0.317542771	0.116430974
H 	3.220278855	3.052756585	1.666943648
H 	4.816456337	2.121126347	1.934744263
H 	3.185782496	1.375446257	2.461882534
C 	3.732614605	2.129696296	1.907665448
N 	1.833559254	-1.096381863	0.519873990
H 	1.198940028	-1.822013665	0.834073671
H 	2.767676391	-1.367410964	0.244641160
C 	5.756984583	1.751242508	-1.117519843
C 	6.677880528	2.580520312	-1.753534386
C 	6.265231064	3.818599431	-2.261172590
C 	4.932508080	4.218158965	-2.125446499
C 	4.032710936	3.369798272	-1.492273786
C 	4.397975831	2.112029460	-0.976180486
H 	6.079700175	0.791256901	-0.718672186
H 	7.713774610	2.266322122	-1.851307738
H 	6.976018985	4.475350982	-2.756328461
H 	4.579934707	5.175895899	-2.498263090
F 	2.744165843	3.803654118	-1.354580810
Sn	-1.404483866	2.001724892	0.178862108
Cl	-0.864997564	2.134292234	-2.140796876
Cl	0.134872113	2.885424254	1.781721707
Cl	-2.910799854	3.870045961	0.215385350
Cl	-2.935387502	0.342239408	0.888702259
