27

H 	2.454398210	0.669767050	0.642166890
C 	4.276101090	-0.144317890	-0.097312880
C 	2.960668220	-0.205322440	0.241069000
C 	2.120830940	-1.383889420	0.135759570
O 	0.907776660	-1.337304880	0.478446500
H 	4.762623790	-1.035078820	-0.498020110
C 	4.689308220	2.255278320	0.560477250
C 	5.551476180	3.341606250	0.668645810
C 	6.874805080	3.197128260	0.240971560
C 	7.361038540	2.002920630	-0.289494460
C 	6.486427980	0.921697250	-0.390209270
C 	5.138794540	1.020616520	0.027535600
H 	3.660698240	2.365580570	0.895277190
H 	5.216916190	4.291283920	1.077435670
F 	7.722127750	4.264065140	0.350048830
H 	8.397235710	1.932411420	-0.609352710
H 	6.847786760	-0.019788050	-0.799837970
C 	1.607218330	-3.815591670	-0.520198540
C 	2.664626710	-2.712393630	-0.375642990
H 	0.822594160	-3.520268700	-1.224800860
H 	1.124394420	-4.029501530	0.438371680
H 	2.077026720	-4.734967770	-0.887645530
H 	3.166465360	-2.526995320	-1.336382700
H 	3.460602250	-3.028893350	0.316219810
Zn	-0.375301970	0.178870910	1.151792550
Cl	-2.334520550	-0.686631620	0.995644530
Cl	0.669154080	1.996719800	1.732561380
