27

H 	1.008764608	-1.947407134	0.142451104
C 	0.000000000	0.000000000	0.000000000
C 	0.033506443	-1.488787940	0.000000000
C 	-1.088161531	-2.347140545	0.000000000
O 	-0.982328704	-3.617205348	0.200776845
H 	-0.959056988	0.402932497	-0.340631078
H 	1.119017232	1.733098169	-0.670498549
H 	1.067114552	0.389321037	-1.845111254
C 	1.145534803	0.643880140	-0.782075185
H 	2.114455659	0.278543683	-0.419977320
C 	-2.686054618	-1.781746569	-1.872009142
C 	-2.482198888	-1.865493543	-0.339619353
H 	-2.515908138	-2.760413371	-2.332754246
H 	-1.992282553	-1.065438913	-2.327221804
H 	-3.708858093	-1.462955822	-2.100510092
H 	-3.192065441	-2.576883939	0.093922555
H 	-2.669474700	-0.884829354	0.111201538
C 	-1.065499924	0.241262158	2.320401256
H 	-0.806804818	0.665163083	3.296235370
H 	-1.421868990	-0.786073736	2.479216093
H 	-1.876269282	0.838357628	1.889026994
N 	0.113718368	0.341835070	1.452478132
H 	0.945221483	-0.079806637	1.870801561
B 	0.385093568	-4.375155494	0.689329554
F 	0.763167792	-3.719370338	1.864262655
F 	1.309012196	-4.203685960	-0.339171307
F 	-0.018114180	-5.672400940	0.875783875
