27

H 	1.534581266	2.072497236	0.553312709
C 	3.470026220	1.031314430	0.570167735
C 	2.022128409	1.151603849	0.243465125
C 	1.274735636	0.267878896	-0.566067140
O 	0.079271829	0.544701779	-0.964579261
H 	3.857227090	0.019146296	0.416006806
H 	4.914437345	1.492318491	2.121473279
H 	3.346881790	0.890616338	2.728819947
C 	3.829621449	1.521046491	1.973494851
H 	3.483042956	2.550849860	2.124430553
C 	1.520516454	-2.124536858	0.204185769
C 	1.771897267	-1.111960195	-0.939617259
H 	0.452662467	-2.173429062	0.441508333
H 	2.059316726	-1.838101258	1.114835986
H 	1.856399746	-3.123482940	-0.094572178
H 	1.234177822	-1.423982669	-1.840419778
H 	2.840746557	-1.082921449	-1.177801858
C 	4.313252467	1.393904317	-1.824672046
H 	4.926764203	2.116785124	-2.372316144
H 	3.379293746	1.246673992	-2.384747434
H 	4.856966985	0.443994260	-1.779960612
N 	4.123307032	1.898559901	-0.459679478
H 	3.745370694	2.847782074	-0.441930062
B 	-0.650238569	2.000797263	-0.789603933
F 	0.224499113	2.917782640	-1.379039161
F 	-0.788301739	2.200083886	0.582279756
F 	-1.836359038	1.846274509	-1.459998145
