28

H 	2.378328920	0.736886220	0.396144870
C 	4.227077560	-0.138400710	-0.178246190
C 	2.895594950	-0.173221160	0.103080320
C 	2.070545500	-1.364997860	0.098375930
O 	0.845036860	-1.297565380	0.384769150
H 	4.699179870	-1.079805230	-0.468872370
O 	6.914155040	-0.033977890	-1.362285990
H 	6.228433710	-0.704573510	-1.524150790
C 	6.395394450	1.021488830	-0.647585600
C 	7.240512700	2.129840460	-0.501292030
C 	6.795314480	3.258766380	0.180099550
C 	5.500068570	3.297969720	0.727935410
C 	4.663679920	2.201150980	0.592605980
C 	5.083835380	1.027124240	-0.089407800
H 	8.233793870	2.086850990	-0.940702820
H 	7.457875860	4.115165130	0.286024480
H 	3.676221820	2.223201220	1.046241750
H 	5.158723160	4.178626020	1.265903760
C 	1.614309310	-3.867031610	-0.253603080
C 	2.648907500	-2.734035020	-0.239801660
H 	0.824623280	-3.670209130	-0.985863790
H 	1.137088430	-3.976606680	0.725239610
H 	2.102299410	-4.813530020	-0.511183030
H 	3.149393710	-2.658139750	-1.216625200
H 	3.446129180	-2.946998480	0.488177620
Zn	-0.363416330	0.325352580	0.908203920
Cl	-2.227641200	0.019918080	-0.110913100
Cl	0.728753810	1.662843730	2.225442070
