29

H 	1.970249707	-0.814892343	-0.058737014
C 	0.000000000	0.000000000	0.000000000
C 	0.910346973	-1.027578273	0.000000000
C 	0.586975333	-2.438921984	0.000000000
O 	1.440731835	-3.347821446	-0.258459514
H 	-1.054746459	-0.216967698	0.163707803
H 	0.297712213	0.344907343	-2.696935775
H 	-1.437595689	0.838323595	-2.225239214
H 	-0.992628413	-0.965104987	-2.434339915
C 	-0.681562779	0.067914748	-2.327610840
N 	-0.682842716	-2.852444132	0.267709356
H 	-1.355176890	-2.237378737	0.705204863
H 	-0.846980256	-3.851833169	0.310831801
C 	0.939118085	4.168479184	0.346621729
C 	1.948006757	3.256530465	0.008216300
C 	1.660065587	1.898163388	-0.110989651
C 	0.350082968	1.423098839	0.105245980
C 	-0.656977271	2.352569603	0.435147309
C 	-0.366092418	3.711318663	0.560186933
H 	2.963063998	3.607246714	-0.163149931
H 	2.453681556	1.208214290	-0.384007628
H 	-1.674656069	2.000008964	0.596337067
H 	-1.155424463	4.412874592	0.820367761
H 	1.169406072	5.227259256	0.439486200
Sn	3.481825588	-3.272236019	-1.321271115
Cl	2.301916062	-2.012056823	-2.981442704
Cl	3.200071363	-5.619292273	-1.212406962
Cl	5.592623965	-3.268887646	-2.465974904
Cl	4.236275478	-2.088911134	0.613320116
