29

H 	1.620603330	2.262144880	-0.473514720
C 	3.364722240	1.057818520	-0.628182630
C 	2.030384100	1.265159280	-0.382712040
C 	1.092128060	0.269894720	0.097290130
O 	-0.112106680	0.539879660	0.413145220
H 	3.758462770	0.042289720	-0.665864670
H 	3.769442930	1.980148450	1.934934140
H 	5.296604880	1.066102350	1.376737460
H 	3.808270390	0.120970630	1.997294030
C 	4.247601830	1.050186600	1.650078810
N 	1.487626500	-1.022396680	0.269297300
H 	2.365683470	-1.364511430	-0.096240890
H 	0.778416010	-1.697915790	0.531478200
C 	6.085789050	3.973775850	-2.199630610
C 	4.892471230	4.393223780	-1.594871570
C 	3.998265780	3.457937010	-1.076296580
C 	4.281734550	2.078165020	-1.155317580
C 	5.491130430	1.670006120	-1.754702330
C 	6.382744520	2.607768630	-2.277886090
H 	4.660455030	5.453881400	-1.527231890
H 	3.084694710	3.800315900	-0.596856500
H 	5.727311680	0.607985700	-1.810763500
H 	7.309992470	2.276041080	-2.740515910
H 	6.782630930	4.707946710	-2.598528390
Sn	-1.316501220	2.488814390	0.456592920
Cl	0.407692780	3.272028870	1.929610160
Cl	-2.967692780	0.997694990	1.266643990
Cl	-2.643843290	4.489966610	0.537260670
Cl	-0.841218920	2.579732470	-1.884430910
