28

H 	2.590344391	0.026208519	1.313318231
C 	4.096554541	-0.283629738	-0.144061814
C 	2.966691995	-0.607601331	0.514287877
C 	1.997970423	-1.647855624	0.092885012
O 	0.777770538	-1.345874300	0.022804084
H 	4.433676237	-0.923716453	-0.960883294
C 	4.456810557	2.003537556	0.849695714
C 	5.272164557	3.109115356	1.078638344
C 	6.564028660	3.107709130	0.553866664
C 	7.060246026	2.049399205	-0.201708787
C 	6.228373388	0.951806581	-0.427137817
C 	4.924201420	0.897015107	0.106577018
H 	3.435875568	2.016309559	1.220484461
H 	4.916318739	3.970486563	1.636977218
F 	7.366833441	4.193196563	0.775998621
H 	8.068426828	2.095180154	-0.603889463
H 	6.597126890	0.117344836	-1.020642008
N 	2.420090011	-2.901559429	-0.247079827
C 	1.449818098	-3.858145925	-0.796052342
C 	3.728354030	-3.462915049	0.106684891
H 	0.599661125	-3.312669273	-1.205491483
H 	1.090970880	-4.542465668	-0.014433485
H 	1.936607141	-4.445581655	-1.582999300
H 	4.315747824	-3.684213879	-0.794684808
H 	3.581221219	-4.399563013	0.660310399
H 	4.282011469	-2.765885151	0.734098386
I 	0.089236663	1.262867666	0.043227907
I 	-0.619109230	3.966491704	0.041447820
