29

H 	2.374324990	0.393075580	0.285138830
C 	4.281250070	-0.487875330	0.111925520
C 	2.933945100	-0.522803230	0.115403750
C 	2.088997950	-1.632594150	-0.393676020
O 	1.212298190	-1.369196970	-1.264739350
H 	4.846271120	-1.406669390	-0.057561910
O 	4.826330820	4.351456670	-0.602953080
H 	3.984851060	4.209563650	-1.086141680
C 	5.296124770	3.144258360	-0.137259090
C 	6.593449250	3.110678800	0.400844890
C 	7.127478800	1.893347370	0.831669280
C 	6.389869780	0.708931940	0.732761760
C 	5.073281210	0.744079910	0.233526020
C 	4.535764210	1.973129900	-0.199855650
H 	7.172962310	4.029536730	0.446774340
H 	8.138170700	1.868154550	1.234048470
H 	3.546143230	2.002125380	-0.647133600
H 	6.823761860	-0.236584190	1.052424640
N 	2.273273020	-2.912593160	0.040490320
C 	1.518592510	-4.011132690	-0.579386330
C 	3.060994510	-3.277581910	1.225157880
H 	1.084541410	-3.663901770	-1.517124880
H 	0.713502560	-4.349666420	0.087707880
H 	2.197713810	-4.852247850	-0.766221810
H 	3.944438060	-3.865137670	0.939534500
H 	2.440806590	-3.888495850	1.894261300
H 	3.380149920	-2.380839320	1.755498110
I 	1.371155210	1.083860750	-2.394633820
I 	1.890154310	3.723109180	-3.185958070
