29

H 	2.376440298	0.392168480	0.287625261
C 	4.283132618	-0.488169730	0.116168166
C 	2.936040806	-0.523535680	0.118579792
C 	2.091931844	-1.632481637	-0.390319302
O 	1.213899344	-1.368901128	-1.258651965
H 	4.848795327	-1.405992887	-0.052968093
O 	4.819650869	4.344589303	-0.604763297
H 	3.980012418	4.199395941	-1.088602597
C 	5.293761637	3.141464154	-0.136835370
C 	6.591988711	3.110596206	0.398787627
C 	7.126712821	1.894931985	0.831668099
C 	6.390300502	0.710194515	0.736268049
C 	5.073228414	0.743205752	0.238572775
C 	4.535249182	1.970588120	-0.195554797
H 	7.170589121	4.029826253	0.441083650
H 	8.137801641	1.871134996	1.232353339
H 	3.546089302	1.999148035	-0.642727578
H 	6.824952762	-0.233926077	1.057316658
N 	2.274179118	-2.911600402	0.041605314
C 	1.516068758	-4.004162928	-0.581530871
C 	3.063879127	-3.279183666	1.221928934
H 	1.086006287	-3.651866276	-1.518811715
H 	0.707446536	-4.339717950	0.082346374
H 	2.190318583	-4.848372995	-0.769488810
H 	3.944352273	-3.869126491	0.933811205
H 	2.444887802	-3.888010893	1.893501870
H 	3.387887099	-2.384133730	1.751407719
I 	1.372409860	1.081745194	-2.392355760
I 	1.892584270	3.718182403	-3.195892474
