25

H 	1.912834993	0.922410080	0.077884911
C 	0.000000000	0.000000000	0.000000000
C 	1.341976338	0.000000000	-0.000000000
C 	2.179190072	-1.215025429	0.000000000
O 	3.319938958	-1.243206911	0.537004603
H 	-0.536673123	-0.953501257	-0.012667143
C 	-1.752132231	1.100648536	1.361099136
C 	-0.899784250	1.213043156	0.066718562
C 	-1.843055048	1.167441196	-1.167398331
C 	-0.111819399	2.537591029	0.073007520
H 	0.494241557	2.647664945	-0.833368057
H 	-2.461688184	1.934969432	1.413467300
H 	-1.114632482	1.133197759	2.251740619
H 	-2.324700061	0.165149907	1.381228371
H 	-2.551765013	2.002960446	-1.124951508
H 	-2.420114657	0.234583197	-1.193516121
H 	-1.272794405	1.248017330	-2.100013966
H 	-0.808325271	3.382299750	0.118249711
H 	0.558004060	2.605689974	0.937040539
N 	1.712501664	-2.338603550	-0.595168970
H 	2.287293814	-3.173333233	-0.575466524
H 	0.870304572	-2.330540963	-1.153642110
Zn	4.264372643	0.181317990	1.721766777
Cl	4.967838951	-0.852116580	3.468304891
Cl	4.138756135	2.117795701	0.753614322
