25

H 	2.495307987	0.358307541	1.042992926
C 	4.122693469	-0.143224744	-0.228197847
C 	2.908804150	-0.332437512	0.311775987
C 	1.974868155	-1.404510671	-0.082731717
O 	0.723665378	-1.263673007	-0.011090079
H 	4.474607154	-0.823876999	-1.009358785
C 	5.322050671	1.788763404	-1.209497753
C 	5.086198104	0.976344462	0.093920725
C 	6.427455934	0.329380182	0.538159957
C 	4.563474089	1.909063011	1.203943670
H 	4.394547062	1.363508760	2.139238840
H 	6.064179603	2.575488028	-1.028908581
H 	4.393150484	2.261480342	-1.547714803
H 	5.695904961	1.147083437	-2.016886495
H 	7.172970420	1.110944036	0.726654142
H 	6.824293492	-0.337479360	-0.237547644
H 	6.297141351	-0.250110222	1.459393163
H 	5.298164802	2.697807219	1.400951890
H 	3.621168313	2.389091320	0.918485025
N 	2.472225843	-2.579813994	-0.536327789
H 	1.823051818	-3.304400936	-0.821099092
H 	3.459052667	-2.791488592	-0.485143022
Zn	-0.398404767	0.436088028	0.409217661
Cl	-1.884993310	0.578594268	-1.134477165
Cl	0.384779561	1.390526340	2.192112618
