21
GO, R2=tBu, R1=H
H	-0.62056146	-0.03764738	-0.08023722
C	-0.09659473	-2.02948020	-0.54883449
C	 0.18266548	-0.75219647	-0.26512258
C	 1.55928918	-0.22013974	-0.18291419
O	 1.86635738	 0.93365884	 0.07180470
H	 0.69695300	-2.74612423	-0.73626627
C	-1.53512390	-3.98169459	-1.12156823
C	-1.54987465	-2.53359044	-0.62266085
C	-2.32371837	-1.63885453	-1.59566924
C	-2.16108997	-2.45555144	 0.77964353
H	-2.14765732	-1.42687928	 1.14159999
H	-2.55099094	-4.37493076	-1.18722103
H	-0.96277866	-4.61120054	-0.43929077
H	-1.07715113	-4.03683810	-2.10978859
H	-3.36175531	-1.96622602	-1.67465053
H	-1.87118027	-1.67785219	-2.58715690
H	-2.31140649	-0.60455404	-1.25008242
H	-3.19455491	-2.80588288	 0.76743983
H	-1.59305862	-3.07453987	 1.47502332
H	 2.32514145	-0.94333367	-0.37095895
H	 1.85103070	 2.46611042	 0.80757453
