26

H 	  1.995174	  0.960351	  0.043216
C 	  0.000000	  0.000000	  0.000000
C 	  1.480290	  0.000000	  0.000000
C 	  2.380874	 -1.104172	  0.000000
O 	  3.577064	 -1.084745	  0.245186
H 	 -0.352354	 -1.024138	 -0.160441
H 	 -1.599243	  0.876716	 -1.214554
H 	 -0.129416	  0.492171	 -2.122802
C 	 -0.506290	  0.882998	 -1.171701
H 	 -0.167352	  1.919816	 -1.072907
Br	  1.565120	 -2.893636	 -0.502601
C 	 -0.024584	 -0.548088	  2.490929
C 	 -0.571406	  0.434678	  1.430298
C 	 -2.110543	  0.326265	  1.397708
C 	 -0.159531	  1.874289	  1.803546
H 	 -0.532670	  2.607039	  1.079318
H 	 -0.475688	 -0.336506	  3.467674
H 	  1.061685	 -0.457524	  2.600823
H 	 -0.256009	 -1.586862	  2.226944
H 	 -2.511612	  0.511843	  2.401814
H 	 -2.432579	 -0.675472	  1.086930
H 	 -2.563986	  1.059968	  0.723268
H 	 -0.581284	  2.134637	  2.781836
H 	  0.927883	  1.981089	  1.879584
I 	  4.140632	  0.859202	  2.248787
I 	  4.446871	  2.705473	  4.278175
