26

H 	1.995174283	0.960350760	0.043215628
C 	0.000000000	0.000000000	0.000000000
C 	1.480289857	0.000000000	0.000000000
C 	2.380874346	-1.104172237	0.000000000
O 	3.577064042	-1.084745490	0.245185974
H 	-0.352353826	-1.024137953	-0.160441008
H 	-1.599243115	0.876716082	-1.214553509
H 	-0.129415857	0.492170972	-2.122801947
C 	-0.506289862	0.882998107	-1.171701402
H 	-0.167352195	1.919815622	-1.072906908
Br	1.565119570	-2.893635626	-0.502601492
C 	-0.024583908	-0.548087843	2.490929106
C 	-0.571405750	0.434678278	1.430298061
C 	-2.110543471	0.326264931	1.397707874
C 	-0.159531446	1.874289428	1.803545628
H 	-0.532670021	2.607038910	1.079317550
H 	-0.475687573	-0.336506185	3.467674265
H 	1.061684864	-0.457524228	2.600823018
H 	-0.256008844	-1.586861631	2.226944313
H 	-2.511612498	0.511843431	2.401814377
H 	-2.432579180	-0.675471585	1.086930244
H 	-2.563985669	1.059967862	0.723268290
H 	-0.581283587	2.134636921	2.781836278
H 	0.927882881	1.981089105	1.879584195
I 	4.140631733	0.859201765	2.248786901
I 	4.446871136	2.705472725	4.278175378
