26

H 	0.895676681	-1.271302016	0.734960978
C 	-0.769817979	0.166995134	0.984541503
C 	0.610641469	-0.224854592	0.621163512
C 	1.659565528	0.571998415	0.077994705
O 	2.696042500	0.181836531	-0.436643556
H 	-0.855173625	1.256664970	0.920610716
H 	-2.053893723	0.042290264	2.755684647
H 	-0.331206822	0.218610217	3.122349954
C 	-1.049010062	-0.262582362	2.449606080
H 	-0.959618199	-1.346684264	2.577519398
Br	1.392145644	2.579064027	0.220884766
C 	-1.454607643	0.125539519	-1.472097870
C 	-1.824629305	-0.411901377	-0.070661878
C 	-3.229422547	0.104522911	0.305665639
C 	-1.827847951	-1.954865007	-0.096878903
H 	-2.091960050	-2.379748629	0.877995045
H 	-2.215576878	-0.173731165	-2.202615017
H 	-0.492523196	-0.271705784	-1.813928194
H 	-1.392591975	1.220275029	-1.474260105
H 	-3.947217910	-0.189783974	-0.470013991
H 	-3.244537033	1.199073089	0.379809013
H 	-3.583906778	-0.311227340	1.254502415
H 	-2.571153964	-2.307975763	-0.821804586
H 	-0.857363286	-2.359999931	-0.402955953
I 	2.237664760	-2.241869170	-1.860194282
I 	1.549881485	-4.511694412	-3.272909455
