29

H 	1.491402330	2.090494210	-0.787309610
C 	3.403368010	1.180296650	-0.439854320
C 	2.020446490	1.197905710	-0.473470250
C 	1.206651300	0.108405100	-0.025753920
O 	-0.065291900	0.189996560	0.060674650
H 	3.903629700	0.243553960	-0.202077450
H 	4.448561390	2.522188130	1.743930610
H 	4.089867160	0.765049930	2.243550910
H 	2.704435150	2.008653750	2.149817900
C 	3.726297550	1.733379890	1.915342040
C 	1.803047440	-1.212144650	0.406159070
H 	2.326385970	-1.086172080	1.364344080
H 	2.528166870	-1.589193240	-0.323383090
H 	1.001560040	-1.941809710	0.540230830
C 	5.670050460	1.963030280	-1.067858210
C 	6.555339120	2.910308800	-1.580726430
C 	6.037562650	4.125781890	-2.027098410
C 	4.671829520	4.413673490	-1.983878780
C 	3.800216220	3.456416190	-1.467955840
C 	4.281119880	2.213503180	-0.998158070
H 	6.058314640	1.011319540	-0.709370730
H 	7.624075620	2.722096870	-1.637597880
F 	6.897056180	5.066834960	-2.522515970
H 	4.310014000	5.371881640	-2.346743400
H 	2.737990880	3.681039820	-1.430106540
B 	-0.970483060	1.547202140	-0.215054760
F 	-0.460187970	2.500122390	0.669111660
F 	-2.245980570	1.134016060	0.073641460
F 	-0.755429620	1.878016490	-1.550341420
