27

H 	  1.945441	  0.923804	 -0.043232
C 	  0.000000	  0.000000	  0.000000
C 	  1.379758	  0.000000	  0.000000
C 	  2.105021	 -1.222056	  0.000000
O 	  3.351029	 -1.340136	 -0.116535
H 	 -0.501548	 -0.961641	  0.115229
H 	 -1.432561	 -0.037810	 -2.457272
H 	 -0.071745	 -1.316909	 -2.522612
H 	  0.341421	  0.486760	 -2.722100
C 	 -0.376273	 -0.278786	 -2.453471
H 	  1.523388	 -2.155648	  0.104786
C 	 -2.581359	  3.384313	  0.411704
C 	 -3.089284	  2.083831	  0.516513
C 	 -2.236300	  0.991065	  0.372055
C 	 -0.857913	  1.175044	  0.127955
C 	 -0.360243	  2.492709	  0.026167
C 	 -1.215558	  3.582877	  0.165786
H 	 -4.147736	  1.924725	  0.708771
H 	 -2.630875	 -0.020550	  0.449694
H 	  0.694594	  2.663344	 -0.169605
H 	 -0.819581	  4.592200	  0.082453
H 	 -3.244740	  4.239199	  0.520004
Ti	  4.988744	  0.031384	 -0.551686
Cl	  6.608191	  1.514180	 -1.022875
Cl	  6.258268	 -1.798274	 -0.573092
Cl	  3.747682	  0.524563	 -2.385532
Cl	  4.451702	  0.937462	  1.443472
