27

H 	0.358724810	-2.415263650	-0.208934010
C 	-0.320750170	-0.435971440	-0.754634920
C 	0.609220250	-1.444302050	-0.633203920
C 	1.983216130	-1.249101000	-1.053564910
O 	2.882902790	-2.088973250	-0.973935910
H 	-0.004940840	0.460290790	-1.290886410
H 	-0.225972490	0.098198380	1.944753490
H 	-0.745238660	1.631512760	1.030513410
H 	1.054728500	1.148385360	1.095839240
C 	0.014086540	0.887013500	1.241282900
H 	2.193028020	-0.238536120	-1.485886650
C 	-4.573501980	-0.731354980	-0.232161970
C 	-3.740839940	-1.734716040	0.282411640
C 	-2.357315990	-1.655066680	0.121558750
C 	-1.774130750	-0.565195530	-0.557141190
C 	-2.624525060	0.438793780	-1.064857660
C 	-4.009306120	0.356193860	-0.909305010
H 	-4.174081240	-2.580816260	0.812180280
H 	-1.726037930	-2.438561990	0.533448940
H 	-2.187599940	1.289116170	-1.586638590
H 	-4.647611140	1.139681930	-1.312861180
H 	-5.652000780	-0.796919020	-0.103638530
Ti	4.487815310	1.661880780	-0.029301330
Cl	5.356086800	0.400063620	-1.590138710
Cl	3.829881550	0.424592290	1.663247790
Cl	2.745732610	2.758054350	-0.830571930
Cl	5.993217550	3.104882260	0.668942010
