24

H 	2.157122872	0.415902883	1.035393328
C 	4.044711322	-0.409491988	0.520585691
C 	2.686540227	-0.440762222	0.621036620
C 	1.823069410	-1.434967761	0.004104930
O 	0.703008030	-1.083205447	-0.503145068
H 	4.587252442	-1.200401421	0.003455348
C 	6.228508883	0.765385405	0.584005365
H 	6.790130344	1.283664054	1.367235143
H 	6.295327181	1.348956223	-0.346075174
H 	6.694261340	-0.211589612	0.417674674
N 	4.845571156	0.571002809	1.021459910
H 	4.376257859	1.382771495	1.413749312
N 	2.171954771	-2.752059009	-0.080641117
C 	1.360684652	-3.659055693	-0.906751174
C 	3.146126894	-3.407811259	0.798610609
H 	0.850259041	-3.086446255	-1.680824345
H 	0.609326373	-4.178950117	-0.295926289
H 	2.022356197	-4.403394600	-1.363827190
H 	4.031633433	-3.738450210	0.238622026
H 	2.678839667	-4.292095690	1.251176928
H 	3.453403607	-2.727498305	1.592671210
Zn	0.280928757	0.809839017	-1.123355832
Cl	0.073085407	0.755011274	-3.274268741
Cl	0.247498696	2.226413690	0.531533384
