32

H 	1.562340040	2.267397780	-0.510954710
C 	3.380861110	1.140117340	-0.647790220
C 	2.022107060	1.286574030	-0.472410340
C 	1.136192060	0.190066960	-0.199009800
O 	-0.102243430	0.365913150	0.042312030
H 	3.808365080	0.142685350	-0.664707840
H 	3.570145230	2.062823920	1.962959200
H 	5.226389680	1.335486280	1.493417400
H 	3.828780580	0.218781890	2.023080710
C 	4.173861360	1.198618440	1.712036610
C 	0.549615890	-2.299924120	0.065929700
C 	1.634325000	-1.246018880	-0.188515310
H 	-0.221936540	-2.265593330	-0.710045730
H 	0.057061530	-2.137070160	1.029591450
H 	0.999091390	-3.299274650	0.066236280
H 	2.140364250	-1.436071320	-1.146056420
H 	2.423592010	-1.315254020	0.576587370
C 	3.862051330	3.541993360	-1.294789960
C 	4.750309950	4.517873890	-1.737571410
C 	6.087646890	4.187144060	-2.000967560
C 	6.537617800	2.875255370	-1.811599790
C 	5.633006470	1.921176760	-1.365110280
C 	4.278403430	2.205327050	-1.094836090
H 	2.827185900	3.810190570	-1.101253920
H 	4.401751630	5.537454840	-1.884084150
H 	6.781795870	4.948819450	-2.348558550
H 	7.568529460	2.590021260	-2.003427240
F 	6.089066180	0.638048040	-1.165668530
B 	-0.869084350	1.830202300	0.212168350
F 	-2.159133000	1.469148680	0.503606380
F 	-0.711388740	2.479884310	-1.009844100
F 	-0.196902360	2.466566720	1.253881210
