32

H 	1.567533346	2.246863790	-0.580285011
C 	3.392719131	1.133895925	-0.667201051
C 	2.030554352	1.269689106	-0.515620743
C 	1.147846009	0.180827829	-0.211961434
O 	-0.085841743	0.367024874	0.045096161
H 	3.830446154	0.140877635	-0.673818749
H 	3.405366995	1.937414222	1.985422529
H 	5.148770642	1.456593208	1.515580127
H 	3.900348870	0.141777308	1.943787906
C 	4.118982663	1.174905987	1.698477055
C 	0.538451542	-2.291463391	0.104710402
C 	1.633835660	-1.256310817	-0.177943227
H 	-0.241698528	-2.257702706	-0.662084772
H 	0.058950078	-2.106080415	1.070569779
H 	0.972761760	-3.296950086	0.116222831
H 	2.133034580	-1.470296316	-1.133450338
H 	2.425113041	-1.318549724	0.584950183
C 	3.867513396	3.548008310	-1.281809115
C 	4.755483932	4.529535495	-1.712669074
C 	6.091968641	4.203621526	-1.983825246
C 	6.540072758	2.889126258	-1.820654999
C 	5.634892412	1.930136226	-1.388218278
C 	4.283063146	2.208384394	-1.106474777
H 	2.835777218	3.816269847	-1.074740317
H 	4.408418257	5.551652024	-1.838761509
H 	6.785422902	4.969376674	-2.322280700
H 	7.568547843	2.602508583	-2.021629980
F 	6.088607482	0.646555663	-1.215419426
B 	-0.829908600	1.836782657	0.200635556
F 	-2.111486214	1.498739622	0.545254720
F 	-0.708502035	2.453249362	-1.039937931
F 	-0.117276934	2.491902249	1.202684169
