68

C 	0.589947010	-0.703532050	2.188911440
C 	1.615619130	-1.570008420	1.942931820
C 	3.036641960	-1.231142140	1.776571590
O 	3.897231980	-2.118891300	1.573234940
H 	5.517918110	-4.759159680	6.242854580
H 	0.808899150	0.333018840	2.452250120
H 	1.414622560	-2.627417560	1.800849380
H 	2.561063000	-6.934133010	-1.322870800
H 	3.666492690	-5.572231710	-1.037943630
H 	5.581628320	-3.503788420	4.990713820
H 	3.666448050	-6.962253980	0.077214700
C 	0.361890530	0.239009200	-0.077351200
H 	-0.222873040	-0.582620090	-0.470447360
H 	5.886381800	-5.195565990	4.562756780
H 	2.784369140	-2.135093490	4.538585260
H 	-0.137710030	1.174543010	0.151007080
H 	1.419761600	0.264592750	-0.310874750
N 	2.564557800	-4.832158500	1.403172260
C 	2.796985700	-5.362404450	2.668534240
N 	3.561727000	-4.530711780	3.464136210
C 	1.962543860	-5.636212870	0.335935960
H 	3.104143950	-4.005491530	1.145842880
C 	3.789197570	-4.765685270	4.890012550
H 	3.868811320	-3.648636930	3.059491160
H 	1.386103970	-6.412630250	0.848508900
C 	5.281606690	-4.538926800	5.197371440
C 	3.032899160	-6.320627760	-0.545164800
H 	-0.695145830	-6.051830330	-0.135221580
H 	3.551341290	-5.823373770	5.052136220
C 	1.007506920	-4.780913830	-0.491394970
C 	1.452018660	-3.613846660	-1.136383470
C 	0.576654660	-2.846318280	-1.909560560
C 	-0.763492320	-3.229773660	-2.048397830
C 	-1.217926050	-4.387273100	-1.407177120
C 	-0.336135090	-5.154037220	-0.636102300
H 	2.489055540	-3.297472620	-1.035888590
H 	0.938989300	-1.948070620	-2.405356840
H 	-1.444373990	-2.632991850	-2.652268180
H 	-2.258097520	-4.693298480	-1.505061990
C 	2.800883120	-3.935159610	5.794385020
C 	3.045298710	-4.280635810	7.281811230
H 	2.274455500	-3.815591240	7.909860130
H 	4.019180000	-3.922107530	7.633557910
H 	2.999874810	-5.365476830	7.445044840
C 	1.349298690	-4.327437130	5.435053800
H 	1.188474740	-5.403827030	5.560141530
H 	0.641815780	-3.791196900	6.080730840
H 	1.116848850	-4.081082910	4.394486830
C 	2.981033100	-2.414497740	5.579908330
H 	3.992020400	-2.081139430	5.842694180
H 	2.274491420	-1.858012800	6.209140850
O 	2.338192490	-6.450348170	3.044667570
N 	3.413904070	0.088260540	1.827595870
H 	4.404723190	0.296570760	1.797270710
H 	2.770932640	0.824716140	2.084867540
C 	-1.202369140	-2.498966280	1.941177380
C 	-0.817783920	-1.147395300	2.581182170
C 	-1.870192700	-0.074596880	2.210765310
C 	-0.803526030	-1.291520560	4.134238560
H 	-0.547060230	-0.340347200	4.618083830
H 	-2.233439720	-2.755828320	2.211144720
H 	-0.558856520	-3.314724560	2.286112230
H 	-1.135530380	-2.458300260	0.849113270
H 	-2.836046710	-0.334512230	2.660710750
H 	-2.011181150	-0.001562150	1.128342950
H 	-1.578534450	0.914445210	2.588304310
H 	-1.798386600	-1.593728400	4.485368340
H 	-0.078275490	-2.045369260	4.450729150
