25

H 	1.838268341	-2.406748355	2.519175394
C 	-1.492111547	-0.015606086	1.735291319
C 	0.946721883	-1.434973713	0.929662367
C 	2.937204819	0.200982862	-0.321088800
O 	5.174941419	0.191027739	0.188077653
H 	-2.186224746	0.998830810	0.058489016
H 	0.478739359	-2.869717435	-0.498202615
H 	-0.121359594	1.166103496	5.478733016
C 	-0.818240039	2.003178567	3.720033305
H 	0.677694907	3.242891746	3.010089873
H 	-2.426799730	3.210445237	4.178143320
H 	2.208837762	1.445870005	-1.871735130
C 	-4.684273181	-3.317282547	0.197825123
C 	-3.727971383	-1.837413841	2.527179563
C 	-5.987209566	-0.279757232	3.536956635
C 	-2.932947651	-3.741625158	4.590648602
H 	-2.176951595	-2.799047150	6.268355060
H 	-6.272886451	-4.533439291	0.727941961
H 	-3.239155932	-4.544642099	-0.624041741
H 	-5.354189354	-2.037595481	-1.285726366
H 	-7.617873567	-1.518718089	3.833290238
H 	-6.564412968	1.194172436	2.202354777
H 	-5.575745511	0.621854731	5.348365497
H 	-4.568715898	-4.853804212	5.199223918
H 	-1.508457760	-5.076861769	3.914255081
