12
C4H7O optimized with DFTB in AMS.
C        0.43892640735742      -0.16682988263785       0.82524290581484
C        0.34378850323002      -0.15343550633952      -0.64818135255985
C       -1.07306656629658      -0.52474771905018      -1.12249220466034
H        0.19135367235747      -1.08398149676142       1.34925550616862
C        0.80002220725666       0.97178886503587       1.60605047998465
H       -1.35487207316989      -1.50803350736619      -0.74671030474428
H        0.62775733122381       0.82504564076153      -1.04983368791093
H       -1.10020399993630      -0.54060784158903      -2.21141072944512
H       -1.79221012452621       0.20955252191743      -0.76069148543702
O        0.86269601628780       0.95518973409145       2.82694178906719
H        1.03279325466482      -0.90288830651533      -1.06016953479992
H        1.02259427155098       1.89120845845324       1.02585304852215
