26

H 	0.072369860	-2.126328826	-0.000820018
C 	0.000000000	0.000000000	0.000000000
C 	-0.553605062	-1.241228415	-0.000000000
C 	-1.979374512	-1.494132875	-0.000000000
O 	-2.425514899	-2.668385421	0.008142724
H 	-0.661733320	0.866407826	0.007693706
C 	1.814000373	1.672395211	0.016032897
C 	3.158474837	2.035960988	0.009295608
C 	4.114096729	1.022414157	-0.024727355
C 	3.770897981	-0.331857373	-0.053140591
C 	2.425381197	-0.678728549	-0.044622642
C 	1.417291320	0.315265662	-0.009673110
H 	1.051730095	2.448375542	0.040632488
H 	3.471728875	3.075896790	0.028999583
F 	5.433147331	1.363344333	-0.032542364
H 	4.552993130	-1.085328289	-0.081765357
H 	2.154607615	-1.730109766	-0.069343521
C 	-2.990025788	-0.366517149	-0.015969479
H 	-2.881829191	0.231285836	-0.929662406
H 	-2.842709439	0.302482340	0.840275135
H 	-3.995474639	-0.789644686	0.021564274
Ti	-1.676468159	-4.724465028	0.045368221
Cl	-0.812672437	-6.793646483	0.087617541
Cl	-0.759714961	-4.082187863	2.007801478
Cl	-3.827724558	-5.302596641	0.030752525
Cl	-0.719222780	-4.143878751	-1.916105711
