12

C 	1.338409930	0.000000000	0.000000000
C 	0.000000000	0.000000000	0.000000000
C 	0.697296551	1.822326077	3.335656468
H 	1.915288068	-0.922201471	0.019164806
C 	2.168896903	1.215579421	0.000000000
H 	-0.133935707	1.699181574	4.020409785
H 	-0.566988809	0.926132735	-0.008783324
H 	0.661201816	2.582711188	2.564589729
H 	1.579714900	1.201401404	3.440168140
O 	3.361860040	1.290083517	0.060928620
F 	1.404995018	2.386092440	-0.079995571
H 	-0.556500552	-0.933763961	0.014617926
