12

C 	1.181818200	-0.231383820	0.877925010
C 	1.463464210	-0.334226890	-0.426778620
C 	-2.250892270	-0.403005850	-0.427743460
H 	1.308236250	-1.068056260	1.562688480
C 	0.649896710	0.983325010	1.521262880
H 	-2.496001160	-0.208193460	-1.465731410
H 	1.323427980	0.503146640	-1.104367770
H 	-2.209137420	0.416221750	0.280986340
H 	-2.060145010	-1.417600050	-0.096838150
O 	0.318733310	1.120221490	2.664052420
F 	0.539478410	2.060695410	0.630857830
H 	1.835664280	-1.266545290	-0.844723290
