12

C 	1.301730545	-0.279016200	0.878938603
C 	1.556942262	-0.277349237	-0.434912736
C 	-2.307261030	-0.274238447	-0.475188330
H 	1.608596495	-1.098670123	1.525167638
C 	0.572115565	0.787322916	1.584576479
H 	-2.681045405	-0.708999067	-1.395116144
H 	1.237395792	0.540776620	-1.073532681
H 	-1.993170806	0.762451688	-0.449631346
H 	-2.273796360	-0.870568247	0.429468050
O 	0.257113665	0.822102186	2.738694501
F 	0.236646282	1.854355162	0.742585590
H 	2.089276483	-1.103568571	-0.899459365
