25

H 	0.325311980	-2.113682720	-0.763450640
C 	-0.752767490	-0.249157810	-0.665856930
C 	0.360905200	-1.025818220	-0.723863360
C 	1.670719780	-0.396729850	-0.703086870
O 	2.748652190	-1.008010130	-0.715036660
H 	-0.595358020	0.831669770	-0.642182220
H 	-0.908230960	-0.787168250	2.453594320
H 	-1.980726420	0.749676110	2.406501920
H 	-0.116606140	0.909716880	2.580503350
C 	-1.000400490	0.292232130	2.468044940
H 	1.669262660	0.713401010	-0.660333900
C 	-4.884698750	-1.351483720	-0.588998070
C 	-3.903990730	-2.353065100	-0.528943450
C 	-2.551687760	-2.017383150	-0.556490110
C 	-2.149606480	-0.665387740	-0.643353580
C 	-3.149869220	0.330471880	-0.699727970
C 	-4.503311100	-0.007142020	-0.676678690
H 	-4.200628830	-3.397576180	-0.457586180
H 	-1.803066680	-2.804021850	-0.502451250
H 	-2.850589880	1.375496400	-0.761086370
H 	-5.259122880	0.774209410	-0.722206000
H 	-5.938948830	-1.619486290	-0.564447520
Sn	5.273350110	0.514571630	-0.429164040
Cl	3.756530220	2.435719030	-0.268762690
Cl	7.376818260	1.751036760	-0.089687210
