34

H 	1.641296968	2.153352636	0.057730375
C 	3.408951184	1.053843608	-0.359657910
C 	2.064249010	1.160865577	-0.072132145
C 	1.025571146	0.146592520	-0.048904534
O 	-0.197667464	0.534396031	-0.193141976
H 	3.829554055	0.083390991	-0.608669506
H 	4.432154693	2.077447692	1.904710625
H 	5.302354294	0.482778164	1.530049123
H 	3.669312689	0.471920929	2.425317727
C 	4.390175029	0.999402202	1.809852625
N 	1.221481948	-1.188063112	0.080587476
C 	0.091014583	-2.112441054	-0.120885883
C 	2.475294079	-1.818116586	0.502680363
H 	-0.674385632	-1.632987636	-0.728860171
H 	-0.347661587	-2.399268558	0.843927948
H 	0.464779943	-3.010134727	-0.624492203
H 	3.010724744	-2.248999140	-0.354557310
H 	2.238082418	-2.627682774	1.201701846
H 	3.115740306	-1.101264928	1.010133781
C 	5.904615553	4.288676845	-1.679167841
C 	4.608681286	4.559730876	-1.220813536
C 	3.779477405	3.525807514	-0.787460209
C 	4.238472961	2.192684908	-0.800163941
C 	5.541504350	1.933083260	-1.269552683
C 	6.367592825	2.968672228	-1.707188452
H 	4.238474560	5.582229129	-1.209713670
H 	2.771203238	3.759625967	-0.456896167
H 	5.904519151	0.906533510	-1.290959948
H 	7.368766588	2.747299530	-2.070033693
H 	6.544626137	5.100028009	-2.018316546
Al	-0.938122678	2.093826289	-0.869578746
F 	-2.565686261	1.963112518	-0.483372757
F 	-0.564433897	2.034270374	-2.511784151
F 	-0.123647195	3.356414709	-0.076907462
