15

C       2.23619487       0.00689228       0.00000000 R
C       0.73361193       0.03850484       0.00000000
C      -0.02191520      -1.24382103       0.00000000
C      -1.36611537      -1.23720509       0.00000000
C      -2.10237839       0.04927281       0.00000000
C      -1.42649224       1.21024091       0.00000000
C       0.05748400       1.20720892       0.00000000
H       2.59455426      -0.52915447       0.90381107
H       2.67112500       1.02963528       0.00000000
Xx       2.55574242      -0.47109834      -0.80592451 R
H       0.51197749      -2.18926493       0.00000000
H      -1.91535988      -2.17327979       0.00000000
H      -3.18784041       0.05044808       0.00000000
H      -1.96403095       2.15300910       0.00000000
H       0.58463063       2.15666755       0.00000000