12

C       0.00000000      -1.20436908      -0.72127171
C       0.00000000      -1.21400992       0.66692151
C       0.00000000      -0.00000000       1.33163740
C       0.00000000       1.21400992       0.66692151
C       0.00000000       1.20436908      -0.72127171
C       0.00000000      -0.00000000      -1.41313065 R
H       0.00000000      -2.14295724      -1.26386416
H       0.00000000      -2.14043545       1.22676221
H       0.00000000       0.00000000       2.41163740
F       0.00000000       2.39510267       1.38065809
H       0.00000000       2.13937514      -1.26179337
Xx       0.00000000      -0.00000000      -2.40313065 R
