7

C       0.14690309      -0.27431551      -0.05381825
H      -0.20976358       0.59933583       0.45058459
H      -0.20976358      -1.14796685       0.45058459
H      -0.20976358      -0.27431551      -1.06262392
N       1.21690309      -0.27431551      -0.05381825 R
Xx       1.54393674      -1.02549237      -0.47236613 R
H       1.55023642      -0.27431551       0.88899079
