10

N       0.17443267       0.70594769      -0.00000000 R
Xx      -0.52642680       1.30193092       0.00000000 R
C       0.06734664      -0.10884634      -1.21006087
C       0.06734664      -0.10884634       1.21006087
H       0.12448585       0.55330785      -2.07433731
H      -0.87729005      -0.66792360      -1.24385511
H       0.89961042      -0.81292339      -1.24565754
H       0.89961042      -0.81292339       1.24565754
H      -0.87729005      -0.66792360       1.24385511
H       0.12448585       0.55330785       2.07433731
