13

O       0.47698121      -0.07356990       1.00049254
H      -0.28692219       0.49193672       0.83202390
C       0.91931014      -0.66729883      -0.13959492
C       2.02066256      -1.51699028      -0.05352635
C       2.49514707      -2.13702902      -1.19789702
C       1.88066530      -1.91734221      -2.42507072
C       0.78423341      -1.06975756      -2.50497111
C       0.29818960      -0.44227990      -1.36626495 R
H       2.49019943      -1.67980316       0.90889895
H       3.35272198      -2.79766685      -1.13282496
H       0.30344685      -0.89480267      -3.45609417
H       2.25553088      -2.40341764      -3.31366876
Xx      -0.48389495       0.16247554      -1.41836686 R
