6

Sn       0.00000000       0.00000000       0.00000000 R
Cl       1.67454977      -1.67454977       0.00000000
Cl       1.67454977       1.67454977       0.00000000
Cl      -1.67454977       1.67454977       0.00000000
Cl      -1.67454977      -1.67454977       0.00000000
Xx       0.00000000       0.00000000       2.00000000 R