29

H 	1.871279074	2.185094921	-0.134031531
C 	3.595901382	0.900789211	0.319082100
C 	2.202445279	1.149995616	-0.159361897
C 	1.290083624	0.173926271	-0.659264096
O 	0.083841670	0.474305941	-0.963350718
H 	3.927523724	-0.122050314	0.081063890
H 	4.739037651	0.984631395	2.146046431
H 	3.059981326	0.423340132	2.380855003
C 	3.697708622	1.128415556	1.837914059
H 	3.388011841	2.148176914	2.086551003
C 	1.497795052	-2.049991326	0.516815110
C 	1.667569214	-1.280691346	-0.818027395
H 	0.466678569	-1.967072086	0.875793691
H 	2.164714897	-1.660364272	1.293644769
H 	1.731310303	-3.109404675	0.367317451
H 	1.006832788	-1.707962023	-1.578720871
H 	2.701294070	-1.369419135	-1.170796894
O 	4.490261440	1.844157454	-0.304557428
C 	4.683330761	1.627959450	-1.727362860
C 	5.748557920	2.602662310	-2.205320975
H 	3.738056814	1.789749075	-2.266021042
H 	4.999089405	0.583474909	-1.891087311
H 	5.426125852	3.636152463	-2.038223956
H 	5.926094725	2.463601897	-3.278518275
H 	6.691489946	2.439457843	-1.671526575
B 	-0.628307960	1.995520901	-0.781616888
F 	0.121552861	2.825780816	-1.600007501
F 	-0.490246492	2.273779247	0.569236449
F 	-1.907987880	1.771485895	-1.199633943
