35

H 	1.377378330	2.088774870	-0.764490850
C 	3.249642340	1.068656720	-0.622267280
C 	1.881339160	1.155840330	-0.534486550
C 	1.012292270	0.178320540	0.100306330
O 	-0.014624210	0.549024520	0.787619130
H 	3.738186560	0.121358740	-0.407177420
H 	3.478585410	2.598731770	1.632461340
H 	5.007017100	1.530303370	1.477163700
H 	3.417642680	0.824276590	2.156889480
C 	3.936901930	1.617914440	1.630855960
N 	1.228160750	-1.160193680	0.025978240
C 	2.035680940	-1.806931630	-1.017741910
C 	0.405721730	-2.071201040	0.843982950
H 	2.317382320	-1.082082520	-1.781317030
H 	1.436522540	-2.598707650	-1.484529270
H 	2.939266620	-2.262702630	-0.591857740
H 	1.004936560	-2.956902680	1.079959210
H 	-0.494344050	-2.380633600	0.295291880
H 	0.100420600	-1.566811950	1.760754660
O 	7.587103760	2.338694120	-2.567754220
H 	7.784771640	1.421533950	-2.306419260
C 	6.282504320	2.641059740	-2.224568040
C 	5.825371270	3.931431520	-2.525585370
C 	4.514220270	4.284319120	-2.195941920
C 	3.655405880	3.374786430	-1.575169280
C 	4.107282270	2.075386120	-1.272926890
C 	5.432699550	1.722327000	-1.599497250
H 	6.500623450	4.635726180	-3.005145530
H 	4.161104910	5.288331630	-2.421261830
H 	5.797561300	0.722319200	-1.360619570
H 	2.648380750	3.682025370	-1.309580760
B 	-0.279023220	2.046808830	1.328085250
F 	-1.391140510	1.905245270	2.130068670
F 	-0.493971220	2.853372710	0.204210450
F 	0.878304320	2.411799020	2.028414290
