24

H 	2.019625726	0.952872728	0.068786651
C 	0.000000000	0.000000000	0.000000000
C 	1.494510907	-0.000000000	0.000000000
C 	2.273919465	-1.176612735	0.000000000
O 	3.537480424	-1.220323551	0.056819102
H 	-0.355939488	-1.008535345	-0.249957467
H 	-1.688100952	0.994377515	-0.954060224
H 	-0.296664883	0.733021277	-2.035517982
C 	-0.594181863	1.001505925	-1.015695065
H 	-0.246266664	2.021281819	-0.819900568
H 	1.734996951	-2.141274800	-0.067539342
C 	-1.160082788	0.761030275	4.124603568
C 	-1.328932731	-0.510686461	3.565433932
C 	-0.953159754	-0.748586867	2.240394481
C 	-0.421325715	0.283698022	1.451516995
C 	-0.243775470	1.554894782	2.025326576
C 	-0.615728618	1.792591085	3.350365241
H 	-1.752352132	-1.317185483	4.160159390
H 	-1.082634440	-1.740213581	1.810259759
H 	0.184465445	2.363653809	1.438106681
H 	-0.475709263	2.781803786	3.780539555
H 	-1.447132909	0.946460427	5.157142764
I 	5.049502138	0.901613542	0.418762214
I 	6.704079149	3.117279238	0.852889631
