24

H 	0.639142550	-1.485291662	0.113676833
C 	-0.788897061	-0.006214012	0.988101381
C 	0.422702420	-0.421961233	0.218202817
C 	1.265640611	0.485604642	-0.458313714
O 	2.266184911	0.170358940	-1.166308484
H 	-0.757234668	1.080832433	1.141863255
H 	-1.804121146	-0.394242662	2.876872463
H 	-0.026501308	-0.426586477	2.990775445
C 	-0.884210859	-0.699381349	2.365830306
H 	-0.894209846	-1.789679678	2.263493022
H 	1.039426343	1.563921079	-0.350458697
C 	-4.164546279	-0.811114591	-1.637625406
C 	-3.761673936	0.505400355	-1.386773433
C 	-2.675910992	0.756825866	-0.543307061
C 	-1.990291389	-0.301009153	0.074510111
C 	-2.394175992	-1.620868549	-0.193017702
C 	-3.476805150	-1.873161551	-1.038498918
H 	-4.291704131	1.336158798	-1.847567785
H 	-2.363273755	1.782205067	-0.353679622
H 	-1.864825283	-2.455856488	0.259631851
H 	-3.780482844	-2.899171083	-1.234155315
H 	-5.005958056	-1.008687727	-2.297860503
I 	2.909615609	-2.313138726	-1.747742732
I 	3.611573457	-4.932867679	-2.440232132
