24

H 	0.614793741	-1.482031506	0.069934400
C 	-0.785477304	0.018478719	0.945849787
C 	0.435667579	-0.414169097	0.199203585
C 	1.353161214	0.473971538	-0.401293083
O 	2.374399346	0.129451078	-1.068122982
H 	-0.751315777	1.107516547	1.085751613
H 	-1.819585447	-0.351540472	2.829829671
H 	-0.042007128	-0.369170767	2.966978926
C 	-0.890344207	-0.656843585	2.335195658
H 	-0.892260483	-1.748608844	2.244464143
H 	1.174068745	1.559049806	-0.268550047
C 	-4.199440423	-0.831648227	-1.617466402
C 	-3.840779085	0.491234909	-1.333725520
C 	-2.739230263	0.758520727	-0.514181036
C 	-1.993696290	-0.290669547	0.045613820
C 	-2.355045003	-1.616637116	-0.252882586
C 	-3.451414900	-1.884637106	-1.076374460
H 	-4.418022777	1.314902874	-1.749092444
H 	-2.462310616	1.789034667	-0.297478672
H 	-1.781344969	-2.444791681	0.157561027
H 	-3.720692653	-2.915285476	-1.297565960
H 	-5.052313904	-1.040989720	-2.259540682
I 	2.930876916	-2.363258380	-1.701625582
I 	3.541776890	-4.989804782	-2.445067203
