12

C 	  0.256878	  0.320996	 -0.136105
C 	  1.060500	 -0.916027	  0.055777
H 	  0.491427	 -1.791831	 -0.283860
C 	 -1.067114	  0.338732	 -0.671830
H 	  0.682990	  1.282503	  0.156128
O 	 -1.741522	  1.375558	 -0.832552
C 	  1.519875	 -1.113572	  1.524563
H 	  2.138509	 -2.013941	  1.611429
H 	  0.656123	 -1.220714	  2.190030
H 	  2.110467	 -0.256414	  1.868262
H 	 -1.491724	 -0.653177	 -0.952873
H 	  1.962879	 -0.857670	 -0.577751
