12

C 	0.536647574	1.387394727	-0.000000000
C 	0.000000000	0.000000000	0.000000000
H 	-1.098025840	0.020435904	-0.012308262
C 	-0.279278168	2.559800578	-0.000000000
H 	1.617471484	1.539389828	0.013539127
O 	0.170122164	3.723288537	0.000413580
C 	0.505710673	-0.840967474	1.201836223
H 	0.116702896	-1.863627827	1.140543817
H 	0.176008729	-0.400692758	2.149384779
H 	1.600769972	-0.889906972	1.211701794
H 	-1.380657941	2.386230884	-0.000738587
H 	0.319232515	-0.506514109	-0.927677572
