12

C 	0.072379000	0.458490000	0.147016000
C 	0.881364000	-0.769627000	0.345434000
H 	0.320085000	-1.649370000	0.008484000
C 	-1.244537000	0.481405000	-0.412106000
H 	0.491509000	1.421715000	0.440204000
O 	-1.898244310	1.497560150	-0.580911970
C 	1.357984000	-0.971567000	1.798392000
H 	1.975789000	-1.872162000	1.871864000
H 	0.508075000	-1.083701000	2.478485000
H 	1.956137000	-0.121560000	2.141940000
H 	-1.650697840	-0.469128270	-0.688547430
H 	1.748705700	-0.707948810	-0.278115650
