12

C 	0.080492880	0.464366800	0.144946950
C 	0.885916190	-0.773337730	0.335715350
H 	0.316688740	-1.650244420	-0.002391630
C 	-1.240540710	0.484090560	-0.400686140
H 	0.506100750	1.425796240	0.439894310
O 	-1.912999080	1.523067810	-0.567287590
C 	1.352142530	-0.971570850	1.802948080
H 	1.972550780	-1.871721020	1.885711170
H 	0.492175350	-1.080323750	2.473573800
H 	1.944475610	-0.114105090	2.144622400
H 	-1.664551430	-0.507688540	-0.683478990
H 	1.786096920	-0.714223940	-0.301429770
