12

C 	0.080492880	0.464366804	0.144946953
C 	0.885916193	-0.773337734	0.335715349
H 	0.316688743	-1.650244424	-0.002391633
C 	-1.240540709	0.484090558	-0.400686143
H 	0.506100754	1.425796242	0.439894315
O 	-1.912999076	1.523067811	-0.567287590
C 	1.352142534	-0.971570849	1.802948080
H 	1.972550781	-1.871721016	1.885711174
H 	0.492175347	-1.080323748	2.473573797
H 	1.944475613	-0.114105095	2.144622403
H 	-1.664551433	-0.507688540	-0.683478989
H 	1.786096922	-0.714223940	-0.301429766
