28

H 	2.146726807	0.617159279	0.064833853
C 	0.000000000	0.000000000	0.000000000
C 	1.480830257	-0.236363277	0.000000000
C 	2.115202451	-1.528460604	-0.000000000
O 	3.384937582	-1.689639158	-0.088970347
H 	-0.510718821	-0.826825459	-0.505345873
H 	-1.440660202	1.476336749	-0.705534496
H 	-0.047534484	1.237009836	-1.790187748
C 	-0.359693304	1.304844432	-0.742773240
H 	0.143935526	2.169438266	-0.298175155
N 	1.365549626	-2.655332601	0.078626482
H 	1.854566718	-3.542793518	0.111532211
H 	0.376770960	-2.633164345	0.299636629
C 	-0.171790843	1.072408558	2.335316067
C 	-0.583465343	1.052748762	3.668786241
C 	-1.291114523	-0.045696202	4.170983593
C 	-1.580684959	-1.130424888	3.336985243
C 	-1.149592311	-1.078317329	2.018384559
C 	-0.459919576	0.004285066	1.466622565
H 	0.384852916	1.925989948	1.957967029
H 	-0.348296863	1.892445488	4.317691632
H 	-1.614063390	-0.064731319	5.208731431
H 	-2.124678279	-2.000986307	3.692858760
F 	-1.424980715	-2.173456551	1.207093001
B 	4.457932873	-0.467568939	-0.304404553
F 	4.049722001	0.185601461	-1.465579185
F 	5.659679191	-1.117490271	-0.410075336
F 	4.339157681	0.340107769	0.827487882
