27

H 	1.902351098	0.952580766	0.058343877
C 	0.000000000	0.000000000	0.000000000
C 	1.379997477	-0.000000000	-0.000000000
C 	2.188645085	-1.191692475	-0.000000000
O 	3.438457380	-1.136625069	0.105872276
H 	-0.578621559	-0.907471629	-0.169504476
H 	-0.309284770	0.672486420	2.562958635
H 	-1.287356130	-0.889513209	2.302410418
H 	0.543853895	-0.970903251	2.591215824
C 	-0.325947186	-0.384213561	2.319518833
C 	2.520115589	-3.739634001	-0.103610497
C 	1.529196892	-2.570142707	-0.128097215
H 	3.236035276	-3.665314748	-0.928087688
H 	3.093845892	-3.749454729	0.828533765
H 	1.982194501	-4.690234352	-0.192809520
H 	0.940442660	-2.583584341	-1.056744671
H 	0.800395373	-2.669497228	0.690588973
O 	-0.659927866	1.168302265	-0.176877154
C 	-2.117588564	1.091153444	-0.171557273
C 	-2.660941087	2.440690026	-0.608586588
H 	-2.428740974	0.288586959	-0.855509584
H 	-2.445100640	0.834339394	0.844735145
H 	-2.322653146	2.688065981	-1.620504970
H 	-3.756967306	2.413787074	-0.603564417
H 	-2.330302340	3.230658502	0.074320896
I 	4.750002225	0.999116488	0.993857017
I 	6.178801950	3.163721605	2.060661062
