27

H 	2.024866973	0.950712737	0.056506896
C 	0.000000000	0.000000000	0.000000000
C 	1.497856653	-0.000000000	0.000000000
C 	2.317302795	-1.172238100	0.000000000
O 	3.553262708	-1.099332335	0.269022316
H 	-0.346712487	-0.589406116	-0.863092956
H 	-1.670890475	1.396961151	-0.169310186
H 	-0.211014653	1.905850338	-1.049352511
C 	-0.577375432	1.427842699	-0.133340177
H 	-0.279228234	2.042753238	0.723468114
C 	1.722867881	-2.535233351	-0.302806032
H 	0.978271154	-2.492366767	-1.105112828
H 	1.215585288	-2.909755222	0.596608243
H 	2.524538356	-3.228704393	-0.567221658
C 	0.025074741	-0.473079998	2.520637397
C 	-0.479499140	-1.104911096	3.659259069
C 	-1.563081642	-1.984147657	3.550291331
C 	-2.142313498	-2.229245319	2.300829078
C 	-1.616928864	-1.583967790	1.186201004
C 	-0.536773165	-0.699865620	1.251825544
H 	0.877970974	0.196611931	2.608118089
H 	-0.024223879	-0.914638434	4.627787428
H 	-1.958741251	-2.481483786	4.432482872
H 	-2.984079001	-2.905946695	2.180703692
F 	-2.191981311	-1.836057064	-0.039820491
I 	4.193818782	0.726639438	2.085666368
I 	4.824409127	2.452777804	4.193352828
