27

H 	1.857157430	1.526366287	1.619692483
C 	3.646178206	0.942831903	0.408896761
C 	2.184930145	0.982503466	0.735630328
C 	1.149586820	0.410891057	-0.068706414
O 	-0.065218655	0.712435937	0.127771340
H 	3.941912734	-0.108697516	0.269736637
H 	5.572316047	1.459681545	1.300468877
H 	4.328154532	0.997280034	2.484921106
C 	4.508570100	1.535282029	1.546947654
H 	4.265901193	2.593016298	1.700039738
C 	1.481882334	-0.555750884	-1.190305034
H 	2.287666940	-1.245399959	-0.916346376
H 	1.822066926	0.016588671	-2.063946937
H 	0.583557001	-1.113449361	-1.465036295
C 	3.304197986	2.876954217	-1.240426347
C 	3.568857186	3.525338693	-2.448655518
C 	4.458611165	2.957688056	-3.367999061
C 	5.084553365	1.741200626	-3.076291978
C 	4.800182172	1.120856662	-1.864221750
C 	3.918573123	1.653515431	-0.919912646
H 	2.599214177	3.313913406	-0.536411694
H 	3.077584702	4.468616339	-2.673166229
H 	4.666702227	3.455976103	-4.311693290
H 	5.780146842	1.272847292	-3.767464092
F 	5.418572633	-0.078851819	-1.589165714
I 	-0.482841345	3.219626436	0.892145401
I 	-0.936502686	5.926914991	1.425362172
