38

H 	1.988786409	0.916354060	0.308045496
C 	0.000000000	0.000000000	0.000000000
C 	1.489568875	0.000000000	0.000000000
C 	2.351929623	-1.157633602	-0.000000000
O 	3.388585408	-1.165349543	0.762781072
H 	-0.383145234	-1.001451516	-0.223326451
H 	-1.673435767	1.017752928	-0.955517997
H 	-0.295200443	0.748645288	-2.044277018
C 	-0.580389585	1.007059688	-1.017971138
H 	-0.212654727	2.019226462	-0.810418916
N 	2.102284842	-2.258447477	-0.749909017
C 	2.923678250	-3.465000972	-0.561753157
C 	1.202269582	-2.266300882	-1.908603550
H 	3.247857752	-3.531622724	0.475209869
H 	3.806244499	-3.436226915	-1.214593820
H 	2.314930687	-4.337479140	-0.817706632
H 	0.325417599	-2.896755808	-1.717234167
H 	1.742938706	-2.672996362	-2.772037960
H 	0.880813339	-1.253592419	-2.148319600
C 	-0.482577412	0.343456320	1.468166638
C 	-1.965006087	0.113227191	1.637092145
C 	-2.450630825	-1.189385167	1.843435360
C 	-3.820815551	-1.429943341	1.971146289
C 	-4.730468659	-0.367944802	1.895475133
C 	-4.259011602	0.933478267	1.694386308
C 	-2.886169109	1.170200886	1.566247969
H 	0.072710625	-0.290093755	2.165759522
H 	-0.217648555	1.384871770	1.684267280
H 	-1.744560892	-2.014909531	1.922191982
H 	-4.179098565	-2.443087634	2.141747462
H 	-5.797197928	-0.553252045	1.999941221
H 	-4.958397805	1.765530285	1.644397841
H 	-2.523833661	2.186216576	1.419158226
Ti	3.663191558	-1.070968158	2.826362828
Cl	3.862332566	-1.108575970	5.070784823
Cl	3.392537396	1.168134357	2.708649081
Cl	1.798053213	-2.411067249	2.877655969
Cl	5.703470007	-1.902192197	2.411053002
