24

C 	0.666759277	1.332536011	0.000000000
C 	0.000000000	0.000000000	0.000000000
H 	-1.083133382	0.174758914	-0.055296238
C 	-0.023937612	2.585594163	0.000000000
H 	1.753109723	1.390663408	0.057431949
O 	0.539712623	3.689335701	0.040622414
C 	0.274897503	-0.682304869	1.364645189
H 	-0.263952033	-1.628809679	1.451356107
H 	-0.064534929	-0.035352781	2.178920890
H 	1.339675084	-0.874182151	1.521360466
H 	-1.136160177	2.530474507	-0.039504986
C 	-0.042763810	-0.096993458	-2.538539018
C 	0.347601370	-0.886087663	-1.270379546
C 	-0.486307981	-2.183130306	-1.236425479
C 	1.843519423	-1.249493987	-1.345638631
H 	2.174837862	-1.822130861	-0.475022814
H 	0.136756481	-0.700274928	-3.434244717
H 	0.536628664	0.825201739	-2.640051460
H 	-1.104018726	0.174214099	-2.530686832
H 	-0.360224968	-2.732986590	-2.174958766
H 	-1.554995516	-1.971542678	-1.121757582
H 	-0.185062494	-2.854337465	-0.428195653
H 	2.031504442	-1.868578316	-2.229008052
H 	2.479709915	-0.364159837	-1.432308745
