24

C 	0.093869600	0.546184284	0.329440061
C 	0.856371552	-0.737810725	0.274436927
H 	0.226301208	-1.484587676	-0.227694007
C 	-1.258041635	0.738576564	-0.105994094
H 	0.557978070	1.413696948	0.796906038
O 	-1.878957676	1.809339477	0.008478602
C 	1.068038433	-1.234853454	1.730425487
H 	1.568241464	-2.206112766	1.747997398
H 	0.101728083	-1.354175557	2.229239700
H 	1.659581038	-0.530877725	2.322119384
H 	-1.754556374	-0.146417801	-0.566156539
C 	1.804484875	-0.313158054	-2.045098094
C 	2.189245788	-0.655384105	-0.589675704
C 	2.901669006	-2.024986977	-0.593564503
C 	3.170366970	0.410829828	-0.059888038
H 	3.491980861	0.201103210	0.964420843
H 	2.695243901	-0.294973703	-2.681643573
H 	1.322473998	0.665755569	-2.121130490
H 	1.118026704	-1.059056518	-2.460745856
H 	3.742004604	-2.002505602	-1.295656849
H 	2.232201594	-2.832171350	-0.910536351
H 	3.311274246	-2.287678489	0.385191934
H 	4.070273357	0.430091918	-0.683454605
H 	2.742387891	1.416640795	-0.082303221
