25

H 	2.412081250	0.789420110	-0.125712650
C 	4.277439480	-0.183845680	0.261964750
C 	2.932822270	-0.148468810	0.056298780
C 	2.085615890	-1.318297170	0.048108940
O 	0.848025150	-1.215242750	-0.209136590
H 	4.764888900	-1.146348250	0.424270150
C 	6.560084550	0.742496230	0.408611980
C 	7.455218860	1.813091790	0.418268680
C 	6.985675920	3.125957620	0.303612280
C 	5.608026880	3.334090270	0.179447720
C 	4.693779740	2.293274230	0.157807700
C 	5.170109340	0.964537910	0.274988430
H 	6.930011140	-0.276875400	0.499393870
H 	8.522704850	1.630366090	0.516064070
H 	7.661335340	3.977232790	0.311487880
F 	5.150301260	4.618628960	0.076016620
H 	3.635407080	2.516374790	0.058727210
C 	2.610409010	-2.704715840	0.339082170
H 	3.089938140	-2.739563590	1.324966540
H 	3.364772260	-2.990421260	-0.405414400
H 	1.784804000	-3.418448480	0.307799030
Al	-0.337124650	0.164350560	-0.737388440
F 	-0.510467680	-0.142247840	-2.377708730
F 	0.499711740	1.600091850	-0.396508890
F 	-1.667389840	-0.108472940	0.244162610
