24

H 	-0.645965429	-2.030208739	-0.024377783
C 	0.000000000	0.000000000	0.000000000
C 	-0.935176527	-0.985472642	-0.000000000
C 	-2.368716427	-0.725725072	-0.000000000
O 	-3.192062872	-1.671635473	0.009081796
H 	-0.349036699	1.032854440	-0.007900710
C 	2.218424554	1.072406751	-0.098546178
C 	3.608901039	1.048745539	-0.122706166
C 	4.284185271	-0.176605855	-0.047451430
C 	3.563221494	-1.370284362	0.053808690
C 	2.175879001	-1.322727052	0.073387647
C 	1.447679040	-0.114215345	-0.005733587
H 	1.691203649	2.022409280	-0.156496581
H 	4.167547052	1.977772736	-0.198660766
H 	5.370754891	-0.206745086	-0.065242942
H 	4.058389696	-2.335185104	0.117465377
F 	1.507768277	-2.505337019	0.181985608
C 	-2.918867829	0.686606526	-0.005305115
H 	-2.567600926	1.235681145	-0.887439883
H 	-2.584646824	1.235402242	0.883768269
H 	-4.009465247	0.643063936	-0.014299437
Zn	-2.842819717	-3.757125636	-0.078523189
Cl	-1.771616404	-4.077026611	-1.923598741
Cl	-3.668947903	-4.583395686	1.718956716
