24

H 	2.263549310	0.838854800	-0.149711960
C 	4.154064170	-0.077385270	0.216708290
C 	2.811655970	-0.084953450	0.004395040
C 	2.014997020	-1.305741030	-0.009727760
O 	0.786917460	-1.269486660	-0.268323840
H 	4.648178230	-1.034317570	0.389613350
C 	6.437450180	0.796897720	0.526968710
C 	7.381126320	1.817415710	0.582842720
C 	6.983745230	3.142687580	0.358494950
C 	5.644731150	3.437272770	0.078048770
C 	4.718644130	2.403049710	0.027155800
C 	5.068777090	1.050722110	0.250502450
H 	6.742843720	-0.233463080	0.700344090
H 	8.421173240	1.586041050	0.798533750
H 	7.713051160	3.948601520	0.399507640
H 	5.309476400	4.455483890	-0.100387930
F 	3.422494970	2.727831380	-0.253724070
C 	2.634266940	-2.660035730	0.278205250
H 	3.105889360	-2.671615920	1.268658580
H 	3.409984870	-2.893103620	-0.462591480
H 	1.855203760	-3.423922880	0.235020400
Zn	-0.407648940	0.388741230	-0.814028620
Cl	-0.340640230	1.758820630	0.852342610
Cl	-1.078220170	-0.029128720	-2.809422210
