24

H 	2.294234951	0.822781146	-0.269139117
C 	4.166072406	-0.083854794	0.193298935
C 	2.832937590	-0.096497605	-0.068049850
C 	2.030805185	-1.312675608	-0.067713889
O 	0.803938957	-1.272039389	-0.324377658
H 	4.649169919	-1.034432132	0.420668346
C 	6.422331664	0.814015933	0.622597673
C 	7.355808133	1.842403961	0.697485333
C 	6.974660401	3.151382823	0.374284384
C 	5.662045729	3.422134060	-0.024021087
C 	4.746598158	2.380448264	-0.088910771
C 	5.078863016	1.044933032	0.232079929
H 	6.715380631	-0.203543270	0.872638686
H 	8.376252655	1.629524229	1.004602898
H 	7.696153304	3.962740268	0.429107178
H 	5.337637745	4.425773912	-0.284297229
F 	3.479442883	2.681151239	-0.489693783
C 	2.642414074	-2.666098655	0.234868126
H 	3.099266203	-2.670363303	1.232014590
H 	3.427407840	-2.907298943	-0.492413874
H 	1.861345657	-3.427171346	0.189260341
Zn	-0.435487657	0.402398062	-0.697198697
Cl	-0.278540343	1.630349267	1.069612086
Cl	-1.237027762	0.133205019	-2.667278022
