25

C 	0.340145250	0.475375470	0.086498910
C 	1.449170500	-0.521419540	0.438431940
H 	1.576552360	-1.215130580	-0.398393830
C 	-0.988742040	-0.192876840	-0.153375050
H 	0.591467690	1.012294110	-0.834728990
H 	0.215388090	1.229903270	0.869333870
H 	0.949430700	-0.635064810	2.545235080
C 	1.125817510	-1.310070000	1.706090850
H 	1.960537110	-1.964974030	1.956385960
H 	0.236681670	-1.921856180	1.556692550
O 	-1.904592860	0.596703650	-0.315177140
Br	-1.255164810	-2.082411670	-0.235697840
C 	2.956770360	1.191767020	-0.561900800
C 	2.769791150	0.247392260	0.629454260
C 	3.915435610	-0.767189300	0.694683320
C 	2.682390350	1.042517320	1.935696590
H 	2.524829140	0.369019500	2.778865900
H 	3.885539770	1.755948120	-0.461811270
H 	2.126894870	1.896982560	-0.619667910
H 	2.994064630	0.624261340	-1.492441380
H 	4.871156140	-0.258080690	0.830099430
H 	3.959336580	-1.348195270	-0.227197420
H 	3.766372010	-1.453158840	1.529300100
H 	3.603446060	1.602502530	2.106001520
H 	1.850623950	1.746704290	1.895141850
