36

H 	1.562601809	1.934482366	-1.097226524
C 	3.289423993	0.723362014	-0.875759040
C 	1.952200679	0.967965430	-0.783948696
C 	1.013331717	0.190090340	0.034942619
O 	0.226130130	0.797472062	0.834077667
H 	3.694641401	-0.232657920	-0.550984496
H 	3.754623533	2.478712435	1.228892495
H 	5.043418883	1.139107763	1.321104758
H 	3.320403443	0.822372831	1.957067729
C 	4.002090898	1.433231367	1.374641055
N 	0.983932117	-1.165751630	-0.001770503
C 	1.579673479	-1.976182806	-1.070592091
C 	0.166878418	-1.901789196	0.976430928
H 	1.917291235	-1.334982539	-1.884107050
H 	0.822180300	-2.671211892	-1.453707092
H 	2.427147864	-2.562105801	-0.691514008
H 	0.706075035	-2.808954528	1.270623609
H 	-0.798110729	-2.188498764	0.537196639
H 	-0.010836287	-1.270900422	1.846998033
C 	4.202656597	1.588249086	-1.722858412
C 	5.666179731	1.552025189	-1.329231788
C 	6.402566182	0.361380535	-1.433347294
C 	7.742417408	0.311347046	-1.038298249
C 	8.368712529	1.458859468	-0.537589697
C 	7.648390422	2.654034470	-0.445059667
C 	6.305956066	2.697547587	-0.836454441
H 	4.111119288	1.226593960	-2.761175096
H 	3.829803411	2.618652401	-1.720216260
H 	5.926196107	-0.534497481	-1.830456530
H 	8.299210240	-0.619286320	-1.126470496
H 	9.411669652	1.422929438	-0.231024199
H 	8.128699893	3.552446454	-0.063484010
H 	5.746367769	3.626999236	-0.749850649
Zn	0.692356885	2.530212642	1.826968859
Cl	1.118288700	4.190562139	0.495248186
Cl	0.702014032	1.970282661	3.913101265
