35

H 	-0.460145361	-2.069351989	0.130168590
C 	0.000000000	0.000000000	0.000000000
C 	-0.872666248	-1.072734484	0.000000000
C 	-2.320431218	-1.107814398	0.000000000
O 	-2.897475488	-2.181557559	0.432193075
H 	-0.395267507	1.011959333	-0.014930528
H 	1.406795595	-0.591993770	-2.199298492
H 	0.862616038	1.176787207	-2.301069130
H 	-0.288310512	-0.188836836	-2.822831601
C 	0.598560427	0.124304785	-2.282280140
N 	-3.141614533	-0.098939570	-0.386371518
C 	-4.589182042	-0.192332676	-0.128787950
C 	-2.718590043	1.090652700	-1.128703477
H 	-4.778876133	-0.935072344	0.643878079
H 	-5.123267902	-0.482174596	-1.043396546
H 	-4.948544346	0.790160643	0.196973886
H 	-2.625330692	1.961779359	-0.465132455
H 	-3.478924420	1.315790417	-1.884715465
H 	-1.772398050	0.914088870	-1.634104609
O 	5.356962521	-0.238877180	1.826982242
H 	5.749452535	0.651182221	1.875513217
C 	4.059936816	-0.143938111	1.379260726
C 	3.327553488	-1.337191512	1.269020533
C 	2.011969278	-1.306407091	0.824039145
C 	1.389839902	-0.087357204	0.473389224
C 	2.140970945	1.097678084	0.599596567
C 	3.459876226	1.079204196	1.046316496
H 	3.800400390	-2.275096801	1.547885365
H 	1.461000815	-2.241301465	0.769756135
H 	1.682101310	2.050697644	0.341588791
H 	4.020891385	2.008167569	1.141242630
Al	-2.295128306	-3.550066198	1.524333225
F 	-3.521357656	-4.693739642	1.452127132
F 	-2.076925155	-2.803086540	3.020095347
F 	-0.820155478	-4.056545832	0.849262122
