35

H 	1.653729600	2.136932140	-0.053266830
C 	3.417191640	1.014827830	-0.394929670
C 	2.065383840	1.134135190	-0.126479880
C 	1.013331690	0.141535000	-0.041013210
O 	-0.206892880	0.543951180	-0.194883850
H 	3.844850990	0.035997240	-0.595839790
H 	4.403348970	2.127555690	1.835636150
H 	5.284700020	0.525872340	1.524376230
H 	3.640615240	0.536379410	2.396299030
C 	4.363934820	1.046822030	1.768536490
N 	1.190572480	-1.190253470	0.162673310
C 	0.048765690	-2.114955300	0.036555700
C 	2.457189690	-1.816941950	0.554071460
H 	-0.771540990	-1.618660220	-0.479009460
H 	-0.291081860	-2.436227800	1.030408820
H 	0.372108130	-2.995995290	-0.530380220
H 	2.975812350	-2.245009990	-0.315642430
H 	2.238751390	-2.628683090	1.256543110
H 	3.107046260	-1.098452800	1.048977170
O 	6.610067380	5.282556690	-2.323838470
H 	7.480251800	4.962863030	-2.624191330
C 	5.867481120	4.220817250	-1.859275410
C 	4.566589030	4.497295060	-1.406135620
C 	3.764134230	3.468649910	-0.929680020
C 	4.234261340	2.136675900	-0.885902370
C 	5.541709570	1.882121140	-1.345938330
C 	6.354618460	2.905592510	-1.830364580
H 	4.198601000	5.519333230	-1.446655100
H 	2.755832370	3.708681790	-0.603252180
H 	5.927288640	0.863723600	-1.324574730
H 	7.360428490	2.685386200	-2.187313030
Al	-0.920246460	2.117593340	-0.872710650
F 	-2.559494520	1.991590420	-0.529291160
F 	-0.504120370	2.085334610	-2.507413140
F 	-0.112693760	3.362074220	-0.041398650
