28

H 	1.573228020	1.814829320	-1.146836160
C 	3.446548720	1.114028470	-0.364562620
C 	2.102064040	1.015651160	-0.634270180
C 	1.228650380	-0.005178640	-0.097227240
O 	-0.022900040	0.205711970	0.086914520
H 	3.955008280	0.291477020	0.137442750
H 	2.597857190	2.783059020	1.658518700
H 	4.371812140	2.276151590	1.994596460
H 	2.962551790	1.117208680	2.382550070
C 	3.325174720	2.013108770	1.888845510
N 	1.710654650	-1.221142630	0.254403680
H 	1.062821590	-1.906224440	0.628700470
H 	2.628449050	-1.528270780	-0.039393120
C 	5.732781930	2.020103880	-0.703547340
C 	6.625447380	2.942628830	-1.251194950
C 	6.158434600	3.989357810	-2.054844890
C 	4.785334850	4.076910600	-2.288789890
C 	3.871940840	3.178373780	-1.753102350
C 	4.346767100	2.121425410	-0.947608640
H 	6.105628290	1.212605780	-0.075982300
H 	7.690885080	2.852436010	-1.052087600
H 	6.831551240	4.721760260	-2.492354880
F 	4.319684420	5.093068660	-3.081169640
H 	2.815498370	3.308933470	-1.967855130
Al	-0.853449880	1.883810130	0.233905310
F 	-2.463840340	1.531694540	0.527044120
F 	-0.514140220	2.647370290	-1.239662790
F 	0.013705300	2.589973680	1.503930040
