18

H 	  0.504052	 -1.501872	  1.464634
C 	 -0.482779	 -0.216418	  0.068669
C 	  0.585648	 -0.678670	  0.756368
C 	  1.951180	 -0.177037	  0.660736
H 	 -0.311130	  0.607649	 -0.622471
O 	  2.907323	 -0.578891	  1.257749
Br	  2.227788	  1.393859	 -0.653110
C 	 -4.539283	 -1.560760	  0.199275
C 	 -3.582602	 -2.185986	  1.013154
C 	 -2.255889	 -1.766196	  0.987070
C 	 -1.853292	 -0.705276	  0.144288
C 	 -2.829452	 -0.086254	 -0.667316
C 	 -4.158690	 -0.509001	 -0.640525
H 	 -3.877613	 -3.003661	  1.666878
H 	 -1.527885	 -2.262226	  1.623459
H 	 -2.531320	  0.731282	 -1.320693
H 	 -4.895960	 -0.020799	 -1.273632
H 	 -5.574514	 -1.893470	  0.223064
