31

H 	1.631712829	2.376980376	-0.251000050
C 	3.382916717	1.175832041	-0.423749518
C 	2.045079908	1.375746929	-0.222885041
C 	1.116644105	0.313238130	0.061296104
O 	-0.111712669	0.530662854	0.305027342
H 	3.767516364	0.156511238	-0.445366494
H 	4.092852506	2.103894849	2.206919639
H 	4.852928032	0.409630313	1.991915534
H 	3.044572946	0.587752933	2.430598309
C 	3.972740899	1.033622509	2.095125392
C 	1.546263355	-1.134208358	0.089128921
H 	2.320603039	-1.289803437	0.850821675
H 	1.971984411	-1.431984970	-0.876331219
H 	0.683054741	-1.762366174	0.316395825
C 	4.275308101	2.018686485	-2.534449115
C 	4.333209265	2.217212548	-0.984633747
C 	5.784432009	1.957517337	-0.516816046
C 	3.917181369	3.662693306	-0.641201127
H 	3.871843611	3.816425824	0.442631075
H 	4.964140268	2.724284006	-3.014100112
H 	3.264525206	2.201252781	-2.913311134
H 	4.575351299	1.002751943	-2.818002384
H 	6.478388869	2.589402365	-1.082545349
H 	6.073228937	0.911420260	-0.678683806
H 	5.909008519	2.187971014	0.545331986
H 	4.650700966	4.364287925	-1.054009424
H 	2.939708697	3.918748328	-1.062129242
B 	-0.830787623	2.036125090	0.410075714
F 	-0.650232691	2.612762611	-0.840124637
F 	-0.133409952	2.686700940	1.420558239
F 	-2.128003782	1.728114435	0.716512412
