24

H 	1.359893520	2.268001100	-0.390140340
C 	3.113826560	1.092117120	-0.736345640
C 	1.823046330	1.283636410	-0.363666970
C 	0.923969820	0.269050690	0.145625810
O 	-0.219819450	0.436002980	0.516147680
H 	3.512037920	0.080481230	-0.691058050
H 	4.172440090	1.881093660	2.127398290
H 	5.582007390	0.757613730	1.611968300
H 	3.945032580	0.017663250	2.161857090
C 	4.561106030	0.884608740	1.953500620
Cl	1.611476020	-1.444735870	0.253024620
C 	5.899199840	4.022865570	-2.129501290
C 	6.270365730	2.677312550	-2.017636840
C 	5.345345510	1.736064600	-1.566718160
C 	4.030877030	2.118026440	-1.217226500
C 	3.671252940	3.480045490	-1.340906630
C 	4.596354800	4.418300760	-1.791236540
H 	7.278868600	2.365232620	-2.280389220
H 	5.633507970	0.690498440	-1.473838310
H 	2.667029470	3.805208710	-1.081615330
H 	4.305259450	5.462847540	-1.880575640
H 	6.618343650	4.760474960	-2.479491540
I 	-1.252937210	3.080830150	0.789325550
I 	-2.114038000	5.693947270	1.062498460
