24

H 	1.373364362	2.290907694	-0.333545996
C 	3.116745369	1.109417305	-0.707966016
C 	1.831930533	1.304272403	-0.319352790
C 	0.930780595	0.287910725	0.178008024
O 	-0.213398964	0.452152390	0.546300187
H 	3.508040661	0.094973055	-0.679792676
H 	4.229279735	1.845159559	2.137707149
H 	5.610583887	0.703443491	1.590266658
H 	3.971573668	-0.013310457	2.162158133
C 	4.596750596	0.844508750	1.945565691
Cl	1.611245969	-1.427449395	0.272520440
C 	5.895606008	4.021295761	-2.142282924
C 	6.250967829	2.669929346	-2.063736950
C 	5.329658027	1.735564493	-1.592740149
C 	4.033975011	2.130695900	-1.193965096
C 	3.690385517	3.498746727	-1.281926613
C 	4.612665193	4.430561135	-1.749765692
H 	7.244296826	2.347661474	-2.367302923
H 	5.604886538	0.685050660	-1.525706679
H 	2.701548983	3.833716540	-0.980891575
H 	4.335381060	5.480343563	-1.810626218
H 	6.612573135	4.753772648	-2.506051084
I 	-1.304706803	3.080017706	0.719124565
I 	-2.239687146	5.677846667	0.885001954
