26

H 	1.924495416	0.916984185	-0.179033950
C 	0.000000000	0.000000000	0.000000000
C 	1.372125297	0.000000000	-0.000000000
C 	2.208354663	-1.202099975	-0.000000000
O 	3.325639393	-1.234298526	-0.569828438
H 	-0.526915064	-0.923194230	0.235013037
H 	0.067687342	0.261163449	-2.705762972
H 	-1.547630188	-0.531993954	-2.221227038
H 	0.015125847	-1.547291426	-2.292350276
C 	-0.465049736	-0.575164832	-2.269267442
N 	1.727275076	-2.332936313	0.613781421
H 	2.353132490	-3.129844266	0.659357574
H 	1.006785677	-2.262193580	1.321192234
C 	-2.176819698	1.114605879	0.450100868
C 	-2.993468281	2.245824542	0.511861499
C 	-2.494319531	3.501636911	0.152251282
C 	-1.166370283	3.581468999	-0.265287578
C 	-0.329209647	2.477147347	-0.333186417
C 	-0.833932652	1.214930980	0.037079443
H 	-2.577660027	0.141733670	0.726706067
H 	-4.026442986	2.152613301	0.838462971
H 	-3.108190098	4.397208811	0.183908782
F 	-0.667913642	4.803106739	-0.630453300
H 	0.688681343	2.606088428	-0.688636837
I 	3.654752437	0.496518298	-2.612223459
I 	3.917848131	2.242067476	-4.777762926
