35

H 	1.767669577	2.158516810	0.261040334
C 	3.454983703	1.023395028	-0.344271218
C 	2.142339125	1.165306250	0.040627492
C 	1.067891110	0.184513235	0.062020452
O 	-0.130155911	0.623224750	-0.048510820
H 	3.829190057	0.051127175	-0.644038586
H 	4.689933886	1.941964788	1.896058432
H 	5.443209410	0.309696853	1.419402242
H 	3.869508352	0.366397669	2.418805811
C 	4.587842598	0.869700615	1.781153566
N 	1.228992359	-1.161318590	0.148731711
C 	0.069115590	-2.046844434	-0.052023080
C 	2.480686603	-1.841607708	0.490848585
H 	-0.763001907	-1.474850014	-0.459191636
H 	-0.232923017	-2.494506092	0.903768824
H 	0.352473502	-2.848220279	-0.744615729
H 	2.972417371	-2.244115565	-0.405594398
H 	2.248729684	-2.678037214	1.159353072
H 	3.159705646	-1.165925855	1.005012278
C 	3.803555562	3.479096131	-0.899603974
C 	4.623920730	4.509380907	-1.354885940
C 	5.946953368	4.246044665	-1.732823497
C 	6.448460905	2.942683319	-1.658983693
C 	5.610372422	1.936864161	-1.199135961
C 	4.280412067	2.154586145	-0.798070386
H 	2.770780304	3.695217850	-0.644882407
H 	4.226831667	5.518396065	-1.428492161
H 	6.585835362	5.048526872	-2.093006057
H 	7.466472712	2.700130418	-1.950805025
F 	6.115691924	0.658664057	-1.124317913
Ti	-1.189890676	2.285517530	-0.705029158
Cl	-2.312815983	4.105795681	-1.427899470
Cl	-0.521696428	3.274856831	1.226422933
Cl	0.250057508	2.294962723	-2.459307816
Cl	-2.974456631	0.914465250	-0.727756178
