28

H 	0.495187217	-3.771487377	0.361267686
C 	-1.986144965	-0.564888461	0.864702021
C 	0.297975115	-1.728603111	0.382356608
C 	2.507242024	-0.293704950	-0.135256988
O 	4.602377210	-1.303800143	-0.633288653
H 	-2.034131819	1.484486763	0.656749574
H 	-1.567325558	-1.295819186	6.225255890
H 	-2.657641932	1.975670445	5.536735599
H 	0.720249952	1.123469463	5.155444679
C 	-1.226222130	0.523753767	5.353016175
C 	-5.289308603	-1.557308789	-2.168080537
C 	-4.559996676	-1.827542617	0.677543720
C 	-6.571639524	-0.428199221	2.257636280
C 	-4.538035435	-4.648846522	1.387343539
H 	-3.912988701	-4.947363848	3.333704638
H 	-7.172255600	-2.359654061	-2.465487124
H 	-3.955101795	-2.556346166	-3.387213827
H 	-5.343933633	0.423869088	-2.757573770
H 	-8.453454389	-1.141268789	1.786644292
H 	-6.562891140	1.605109984	1.878025111
H 	-6.288491490	-0.711767103	4.282606216
H 	-6.448119116	-5.421081638	1.222847499
H 	-3.323781109	-5.762222463	0.141861606
H 	2.377800800	1.782107568	-0.113388456
Al	7.651254619	0.472854345	-1.438252805
F 	6.930650340	3.413075435	-0.433387710
F 	7.829605640	0.167443669	-4.587271734
F 	9.851523517	-1.039517709	0.258723600
