33

H 	2.006718375	0.854637067	0.452093148
C 	0.000000000	0.000000000	0.000000000
C 	1.505208003	-0.000000000	0.000000000
C 	2.295721485	-1.228459304	0.000000000
O 	3.122434670	-1.448025911	0.945407064
H 	-0.384023317	-0.717743527	-0.734838320
H 	-1.676169591	1.373366272	-0.226153604
H 	-0.313943658	1.700835966	-1.324657412
C 	-0.584071592	1.390108716	-0.308721044
H 	-0.199055773	2.145341119	0.384543168
N 	2.124508313	-2.172360977	-0.962060684
C 	2.779977757	-3.479899378	-0.826782918
C 	1.487602601	-1.895432070	-2.252394831
H 	2.985287544	-3.672005551	0.226369135
H 	3.724792237	-3.503177945	-1.386826014
H 	2.111628569	-4.250079972	-1.227609283
H 	0.570334072	-2.486419133	-2.372104729
H 	2.180331715	-2.161385828	-3.061192406
H 	1.253542973	-0.833305982	-2.334362076
C 	-0.804084292	-1.889126947	1.507787482
C 	-1.102617670	-2.427136908	2.763240009
C 	-0.998432961	-1.643803096	3.915002859
C 	-0.589148710	-0.321216680	3.770966711
C 	-0.271879927	0.239026132	2.538076545
C 	-0.396187658	-0.552350917	1.382223724
H 	-0.886284376	-2.510928491	0.618899489
H 	-1.411555824	-3.466084413	2.848482636
H 	-1.204822833	-2.042645822	4.903357372
F 	-0.476697475	0.458015471	4.887413621
H 	0.077770473	1.265564232	2.499367798
Zn	2.933745160	-0.670476383	2.855880952
Cl	2.615387269	-2.374147380	4.138004891
Cl	3.205589404	1.483695587	2.820210835
