33

H 	1.466427910	1.888358690	1.086426250
C 	3.494983850	1.136272920	0.551319100
C 	1.999962970	1.028128120	0.682782130
C 	1.186599050	0.156339930	-0.163288800
O 	0.256280210	0.655611490	-0.879986970
H 	3.932235620	0.146939270	0.367786460
H 	5.230332080	1.874484670	1.645008920
H 	4.001317260	1.096600700	2.673040030
C 	4.153671810	1.747906900	1.804037710
H 	3.723672210	2.727427350	2.039798530
N 	1.441231400	-1.177081770	-0.240780130
C 	0.735011030	-2.000592300	-1.233490910
C 	2.219435600	-1.904159380	0.768409510
H 	0.421104190	-1.370956730	-2.066768840
H 	-0.150900790	-2.474469080	-0.788267000
H 	1.415995590	-2.783088910	-1.586393810
H 	3.113807000	-2.356185350	0.320363520
H 	1.600274980	-2.704743650	1.194509330
H 	2.512159260	-1.229124080	1.573787440
C 	4.148497410	1.302035080	-1.906003240
C 	4.324626100	2.019165190	-3.093724480
C 	4.082097940	3.394903080	-3.136679090
C 	3.658642590	4.023358850	-1.967784150
C 	3.466235600	3.335465200	-0.773229330
C 	3.731617030	1.953422390	-0.735062760
H 	4.337613820	0.230371730	-1.886382620
H 	4.645769530	1.502875690	-3.995537100
H 	4.196177590	3.969000800	-4.051498350
F 	3.411128270	5.370301950	-1.994179310
H 	3.104217820	3.877186310	0.094945460
Zn	0.251665620	2.629152050	-1.507210920
Cl	0.504020340	2.549151770	-3.648580550
Cl	-0.068554340	3.950624040	0.188290660
