28

H 	2.433027590	0.711384010	0.492185410
C 	4.295841970	-0.159878210	-0.103440420
C 	2.962213060	-0.184690840	0.173045070
C 	2.135531350	-1.365744830	0.072880650
O 	0.910677100	-1.319117020	0.400392000
H 	4.784898260	-1.085343890	-0.411170510
C 	4.715886380	2.290842890	0.314324730
C 	5.597029970	3.364716810	0.378363720
C 	6.950427870	3.141992800	0.104579050
C 	7.447906300	1.882990260	-0.230410130
C 	6.553018380	0.817193350	-0.295224040
C 	5.174690380	0.992584480	-0.023829850
H 	3.663287780	2.459992170	0.525321380
H 	5.255910350	4.364279200	0.634159080
F 	7.815789800	4.195211280	0.166859740
H 	8.507436450	1.754599760	-0.433973410
H 	6.921215250	-0.173222690	-0.556415450
C 	1.635211720	-3.831926370	-0.431530020
C 	2.666368470	-2.695147020	-0.434190320
H 	0.780847860	-3.592119560	-1.072499070
H 	1.252189640	-4.015105440	0.577662110
H 	2.099777070	-4.753041680	-0.800246620
H 	3.057832030	-2.529146100	-1.449375430
H 	3.540307110	-2.963594390	0.177710960
Al	-0.244104240	-0.066352770	1.199736190
F 	0.474835980	1.440254880	0.897383170
F 	-0.178628500	-0.521341010	2.816036480
F 	-1.690903630	-0.320577380	0.393300820
