31

H 	1.913493381	0.913880714	0.187860163
C 	0.000000000	0.000000000	0.000000000
C 	1.354118306	-0.000000000	0.000000000
C 	2.204939635	-1.189951726	0.000000000
O 	3.255555846	-1.203424553	0.740396400
H 	-0.528230207	-0.947881330	-0.107064319
O 	-3.409373148	4.452405939	0.649536522
H 	-4.344248309	4.197300616	0.549866016
C 	-2.611919789	3.345595291	0.489041802
C 	-1.223979999	3.529869967	0.622756211
C 	-0.365713825	2.451864753	0.471028388
C 	-0.860908429	1.157883048	0.177828588
C 	-2.258244803	0.995769840	0.063453735
C 	-3.129023061	2.071926439	0.211216355
H 	-0.844032601	4.520969746	0.856181137
H 	0.701598072	2.609514030	0.600691778
H 	-2.664067350	0.007774805	-0.146678865
H 	-4.204607749	1.926727985	0.117413109
N 	1.947443236	-2.288689718	-0.741862066
C 	2.763667927	-3.502721816	-0.566267033
C 	0.993908578	-2.329075726	-1.858205674
H 	3.259578731	-3.474220118	0.402658875
H 	3.522929221	-3.569419336	-1.356404465
H 	2.106428564	-4.376804310	-0.628220850
H 	0.102868781	-2.913296220	-1.594845890
H 	1.481935801	-2.809651790	-2.714046050
H 	0.696442873	-1.319131454	-2.138284322
Al	3.773866205	-0.056103525	2.112064956
F 	2.613973779	-0.303491620	3.308944377
F 	3.678090927	1.493463880	1.429741358
F 	5.327410967	-0.568719438	2.483685303
