31

H 	2.468873040	0.365092960	1.026291730
C 	4.150028730	-0.242287120	-0.121051610
C 	2.918337240	-0.414727020	0.414704400
C 	1.961278610	-1.468061990	0.070792330
O 	0.719608200	-1.155314180	-0.057709390
H 	4.552420390	-1.000546210	-0.794215600
O 	7.506186880	4.242064850	0.618383200
H 	8.374416240	4.111462460	0.195009030
C 	6.723439410	3.130299840	0.415486250
C 	5.421323690	3.162440100	0.945477220
C 	4.577767430	2.075841870	0.774162270
C 	5.005336250	0.919878240	0.075820880
C 	6.311243610	0.916467740	-0.459102480
C 	7.168071520	2.002479540	-0.291416560
H 	5.089596610	4.053261540	1.472880590
H 	3.565959020	2.132388540	1.166841330
H 	6.658138970	0.045804690	-1.013814730
H 	8.173318830	1.979610360	-0.711022530
N 	2.307458030	-2.760069730	-0.116045280
C 	1.304242510	-3.732464400	-0.590561920
C 	3.607465960	-3.331864420	0.263251320
H 	0.474971660	-3.203952970	-1.058353480
H 	0.924633340	-4.326255410	0.251570670
H 	1.781974020	-4.402770280	-1.313630670
H 	4.214974910	-3.550496430	-0.624643340
H 	3.430093730	-4.270662010	0.801116510
H 	4.147493530	-2.644458850	0.914002440
Al	-0.074069580	0.527208740	-0.212553110
F 	0.534365740	1.124255790	-1.667257360
F 	0.494430400	1.396192290	1.130216280
F 	-1.717231680	0.185339420	-0.186771100
