31

H 	2.421404210	0.401081513	1.010496257
C 	4.120283036	-0.213523611	-0.115557736
C 	2.883643656	-0.379750766	0.410491656
C 	1.949098168	-1.450867880	0.065216539
O 	0.702568363	-1.168694172	-0.071546800
H 	4.518447279	-0.979739498	-0.781401100
O 	7.573058322	4.192261840	0.617271700
H 	8.431456621	4.042965237	0.181533952
C 	6.760097207	3.103741155	0.414942344
C 	5.465446108	3.159288718	0.961757269
C 	4.597383752	2.091701201	0.793050311
C 	4.991276765	0.934157728	0.078547775
C 	6.289991589	0.908792009	-0.473364924
C 	7.170763591	1.974153220	-0.307691266
H 	5.159734566	4.050852666	1.502848919
H 	3.593579825	2.162669080	1.203125684
H 	6.610769840	0.036205193	-1.039647009
H 	8.169953893	1.934758797	-0.739930648
N 	2.324634917	-2.734757147	-0.120496663
C 	1.350839019	-3.721085234	-0.620305379
C 	3.620229345	-3.286923013	0.296193098
H 	0.528393791	-3.206437927	-1.114551558
H 	0.953062061	-4.318917665	0.210124215
H 	1.859209014	-4.385796101	-1.327087859
H 	4.255146310	-3.502003710	-0.572855015
H 	3.440676988	-4.225135605	0.833877724
H 	4.133510754	-2.589634067	0.957440139
Al	-0.147390227	0.481688629	-0.213929400
F 	0.417958882	1.105427062	-1.673519209
F 	0.408126649	1.363274972	1.124018305
F 	-1.777207052	0.086405325	-0.171194033
