37

H 	-0.016418000	2.099777000	0.197241000
C 	0.000000000	-0.000000000	0.000000000
C 	-0.598762000	1.199446000	-0.000000000
C 	-2.052898000	1.441190000	-0.000000000
O 	-2.522196000	2.351775000	0.768952000
H 	-0.589605000	-0.908513000	-0.123609000
H 	1.645219980	0.714919980	-1.314379160
H 	1.006829700	-1.003958560	-1.668456750
H 	-0.127673400	0.489278740	-1.875650960
C 	0.831376370	0.062888420	-1.605638200
N 	-2.924214000	0.747872000	-0.755830000
C 	-4.373406000	0.959228000	-0.582929000
C 	-2.548361000	-0.165069000	-1.845823000
H 	-4.563041000	1.426494000	0.382027000
H 	-4.758585000	1.607839000	-1.380007000
H 	-4.875949000	-0.011999000	-0.638388000
H 	-2.681060000	-1.210973000	-1.541612000
H 	-3.204086000	0.034009000	-2.700692000
H 	-1.515033000	0.002117000	-2.143901000
C 	1.454057490	-0.161269180	0.707568320
C 	2.369906660	-0.972285530	-0.201025140
C 	2.155052320	-2.344857000	-0.402694700
C 	2.978652460	-3.077818750	-1.262429630
C 	4.036667370	-2.446566870	-1.927502040
C 	4.264414480	-1.082300150	-1.724125060
C 	3.430954300	-0.349993240	-0.872258010
H 	1.379259300	-0.656605580	1.687684510
H 	1.877558830	0.833990060	0.878154730
H 	1.343025850	-2.847107250	0.121492320
H 	2.801518550	-4.141614210	-1.406430030
H 	4.680388620	-3.016016930	-2.594017980
H 	5.087180190	-0.585013780	-2.233310110
H 	3.605341480	0.714466520	-0.728916120
Al	-1.716114000	3.266254000	2.182981000
F 	-2.912789000	4.323927000	2.694013000
F 	-1.311447000	2.035756000	3.261943000
F 	-0.357213000	3.992837000	1.483728000
