37

H 	-0.163930002	2.155313454	0.595399773
C 	0.141478830	0.197304894	-0.130272265
C 	-0.639640969	1.279058556	0.155412211
C 	-2.095053016	1.408814164	0.127048791
O 	-2.633169020	2.280373008	0.908551482
H 	-0.303612932	-0.733403587	-0.471490406
H 	1.685947010	1.405450523	-2.098461947
H 	1.144423088	-0.250851734	-2.746248424
H 	0.013261727	1.232501573	-2.875803808
C 	0.890300284	0.760020650	-2.448639664
N 	-2.936842451	0.666391231	-0.626924799
C 	-4.392812090	0.774673303	-0.419563546
C 	-2.533416937	-0.218011684	-1.724028840
H 	-4.595706006	1.200977749	0.561259159
H 	-4.840174894	1.416454903	-1.189683304
H 	-4.828432749	-0.227543130	-0.493603900
H 	-2.591045578	-1.271724439	-1.419175270
H 	-3.220135689	-0.064686825	-2.564107030
H 	-1.523734542	0.010904265	-2.053020137
C 	1.545392576	0.072532474	0.430297562
C 	2.423529552	-0.953452387	-0.259479962
C 	2.035809840	-2.301833257	-0.321030188
C 	2.830490208	-3.246182937	-0.977331994
C 	4.033465389	-2.856280875	-1.577870280
C 	4.436886213	-1.519248575	-1.508712535
C 	3.635986254	-0.577358606	-0.853653015
H 	1.422118452	-0.212919028	1.488612774
H 	2.031312328	1.054512566	0.443651929
H 	1.110236587	-2.620875912	0.156671108
H 	2.515650153	-4.287022359	-1.012961884
H 	4.653646409	-3.590175171	-2.087549974
H 	5.373631239	-1.207198934	-1.965486662
H 	3.954988124	0.462431631	-0.806899027
Al	-1.948631448	3.140159872	2.407014331
F 	-3.229564113	4.078286576	2.948124811
F 	-1.495081662	1.862634388	3.412997758
F 	-0.609016615	4.002077351	1.833117163
