23

H 	-1.302245751	-0.655729811	-0.326167188
C 	-0.926811837	-4.700113877	-0.343200537
C 	-0.091729296	-2.297494068	-0.077813248
C 	2.542651433	-1.770814404	0.578019162
O 	3.430767124	0.340954864	0.862520096
H 	0.463251370	-6.195436758	-0.043765737
C 	-8.265409506	-7.543707038	-2.190671954
C 	-6.260679086	-9.184908924	-1.703568845
C 	-3.886137314	-8.219463542	-1.111212310
C 	-3.455178649	-5.594648418	-0.982500603
C 	-5.506089689	-3.967162902	-1.478794861
C 	-7.874174687	-4.932622318	-2.075578343
H 	-6.545414603	-11.218016641	-1.789537587
H 	-2.331333722	-9.510141621	-0.734780211
H 	-5.248520404	-1.933468239	-1.400991031
H 	-9.430616505	-3.645060478	-2.452904907
H 	-10.122730910	-8.288924330	-2.656464891
H 	3.753930082	-3.484095859	0.816711133
Ti	5.244460686	11.896784168	3.001009460
Cl	4.645119351	7.883895459	2.312716527
Cl	3.574469315	12.937940959	6.636922766
Cl	3.457082065	14.094394953	-0.010839777
Cl	9.298057688	12.701848240	3.070529591
