23

H 	-0.689118774	-0.346997273	-0.172600243
C 	-0.490447703	-2.487193152	-0.181613903
C 	-0.048541053	-1.215781503	-0.041176998
C 	1.345513194	-0.937074628	0.305874568
O 	1.815483778	0.180425544	0.456425979
H 	0.245142068	-3.278483944	-0.023159830
C 	-4.373866349	-3.991957850	-1.159253675
C 	-3.313008697	-4.860444487	-0.901489810
C 	-2.056455305	-4.349552792	-0.588028231
C 	-1.828401801	-2.960560446	-0.519916929
C 	-2.913697185	-2.099332200	-0.782544540
C 	-4.166833799	-2.610231321	-1.098348758
H 	-3.463684244	-5.936318758	-0.946982509
H 	-1.233688676	-5.032550218	-0.388828942
H 	-2.777397389	-1.023147330	-0.741372526
H 	-4.990467339	-1.928882937	-1.298021378
H 	-5.356718510	-4.386309858	-1.405740682
H 	1.986494251	-1.843704129	0.432184920
Ti	2.775249078	6.295507065	1.588065816
Cl	2.458091303	4.171977810	1.223836881
Cl	1.891527703	6.846463511	3.512108278
Cl	1.829409045	7.458432611	-0.005736163
Cl	4.920320234	6.721528625	1.624854285
