26

H 	1.153783900	-4.337697643	1.474634040
C 	-1.046475498	-0.791930019	1.821532601
C 	0.506899493	-2.768862282	0.296984535
C 	2.704923348	-1.660619137	-1.086719268
O 	4.852072195	-2.531433277	-0.994159067
H 	-1.481926878	0.760687736	0.518441000
H 	-0.726047727	-3.552808058	-1.185558633
H 	1.090418167	-1.128326689	5.363239547
C 	0.489539948	0.327331689	4.023263626
H 	2.187283347	1.292311578	3.340813260
H 	-0.646967558	1.708026194	5.059172643
C 	-8.291818233	-3.880016176	4.141397043
C 	-8.168169629	-1.919010831	2.386472217
C 	-5.829307225	-0.943172841	1.654847877
C 	-3.571189372	-1.895468759	2.656766941
C 	-3.726855788	-3.865791061	4.423332250
C 	-6.059081059	-4.848273095	5.157697268
H 	-9.892376136	-1.141119701	1.582525481
H 	-5.764204425	0.589728544	0.285159933
H 	-2.019570298	-4.652473710	5.251613612
H 	-6.130645295	-6.376174480	6.530764036
H 	-10.109780977	-4.646073874	4.715921322
H 	2.314836836	0.013871107	-2.278096038
Sn	8.566195695	-0.725982141	-3.475757815
Cl	5.928039677	-0.578213414	-7.251667761
Cl	7.622133359	3.456340664	-1.781917088
