25

H 	2.030100213	0.931193344	0.159838752
C 	0.000000000	0.000000000	0.000000000
C 	1.492284912	-0.000000000	0.000000000
C 	2.304399507	-1.165922426	-0.000000000
O 	3.529260146	-1.250390224	0.123518285
H 	-0.368306584	-0.845543952	-0.592892770
H 	-1.682343450	1.288413765	-0.492553750
H 	-0.296946915	1.456331451	-1.596860662
C 	-0.589161647	1.312775970	-0.550233636
H 	-0.236119307	2.175785986	0.024843367
F 	1.619476452	-2.346393539	-0.179826396
C 	-1.075032719	-0.786287352	4.140248363
C 	-1.436860583	-1.692636962	3.134589322
C 	-1.082858827	-1.444794947	1.806657557
C 	-0.387308798	-0.274235851	1.465479992
C 	-0.011159907	0.623783352	2.482752311
C 	-0.360287838	0.370795814	3.810668574
H 	-1.992528591	-2.593289247	3.386215831
H 	-1.353299583	-2.155350052	1.028630460
H 	0.562542357	1.514560273	2.240411238
H 	-0.064658356	1.071153823	4.588158718
H 	-1.343197357	-0.985800272	5.175215046
Zn	4.997309856	0.206911355	0.793342997
Cl	6.860277556	-0.509588137	0.051191498
Cl	3.869831309	1.689942488	1.883151799
