25

H 	0.849639373	-1.592626369	0.425091623
C 	-0.616539788	0.002310724	0.991192920
C 	0.555970883	-0.559221184	0.258516388
C 	1.231826903	0.088495519	-0.810402192
O 	2.120652113	-0.357164420	-1.541190892
H 	-0.512282205	1.090598783	1.074112207
H 	-1.675845145	-0.203477507	2.880219674
H 	0.089417274	-0.380897060	3.019448121
C 	-0.782073724	-0.609617180	2.395255599
H 	-0.887884883	-1.698679449	2.341533043
F 	0.842995161	1.389785258	-1.034955222
C 	-3.993337614	-0.754324885	-1.643259329
C 	-3.627037805	0.561100297	-1.328267005
C 	-2.536604564	0.803876528	-0.490316691
C 	-1.817256994	-0.266286603	0.064381892
C 	-2.179208713	-1.585349694	-0.270032468
C 	-3.265636271	-1.825745945	-1.113323290
H 	-4.189901248	1.396960787	-1.737875792
H 	-2.245459871	1.825636047	-0.256660583
H 	-1.607591596	-2.423967793	0.118966970
H 	-3.536327813	-2.848412184	-1.364856406
H 	-4.836916514	-0.941260806	-2.303791928
Zn	2.813139848	-2.392995784	-1.862771960
Cl	4.758566363	-2.184788521	-2.703470737
Cl	1.206007660	-3.656196160	-1.170151302
