25

H 	2.375255774	0.744441051	0.519177313
C 	4.190510947	-0.114471981	-0.193316308
C 	2.866525694	-0.133154240	0.115179693
C 	2.027125794	-1.295612748	-0.067058834
O 	0.795465340	-1.287691722	0.227923381
H 	4.648064335	-1.016964632	-0.599573830
C 	6.933385057	3.129514512	0.221086079
C 	5.599717214	3.299249182	0.622888890
C 	4.689736356	2.254776015	0.497294256
C 	5.097777520	1.009600961	-0.036669612
C 	6.445359868	0.854944328	-0.434686764
C 	7.354115160	1.904448214	-0.308447539
H 	5.274209619	4.251312237	1.035279800
H 	3.660872341	2.400257824	0.814353966
H 	6.770717598	-0.099246208	-0.845210994
H 	8.387171383	1.769558531	-0.620149582
H 	7.639471000	3.950727507	0.321611316
C 	2.564165521	-2.595640943	-0.620497009
H 	1.753594859	-3.325102763	-0.666559934
H 	3.368142942	-2.984044943	0.016173888
H 	2.977348010	-2.446019241	-1.625337618
B 	-0.067305942	0.016704017	0.856257303
F 	0.052019315	1.009253183	-0.104288242
F 	0.575036308	0.322287562	2.047020020
F 	-1.322927821	-0.503474462	0.996356412
