29

H 	1.908309915	0.914442031	0.186001088
C 	0.000000000	0.000000000	0.000000000
C 	1.349100649	-0.000000000	0.000000000
C 	2.198885167	-1.205516529	0.000000000
O 	3.143634796	-1.291231253	0.848436990
H 	-0.529077571	-0.944655446	-0.137664671
C 	-2.584427702	3.367688227	0.542523888
C 	-3.098987166	2.133717058	0.131411631
C 	-2.243494730	1.042495416	-0.029772995
C 	-0.857890460	1.167192887	0.203116376
C 	-0.354119000	2.415737810	0.631505356
C 	-1.211568349	3.500986105	0.796069025
H 	-4.164256755	2.020607743	-0.056955467
H 	-2.645231682	0.080402282	-0.344071240
H 	0.702469833	2.530007663	0.860244739
H 	-0.811384041	4.454175218	1.133984330
H 	-3.248430091	4.218743558	0.676419830
N 	1.993016346	-2.230467663	-0.861315691
C 	2.775080377	-3.469111554	-0.715871700
C 	1.153182364	-2.149666037	-2.063433949
H 	3.157069959	-3.539229741	0.302159219
H 	3.619389298	-3.476555984	-1.418106812
H 	2.123791950	-4.322353655	-0.934362462
H 	0.270298604	-2.794683758	-1.966144093
H 	1.737682007	-2.490549021	-2.926851971
H 	0.834006398	-1.122476184	-2.233706295
Zn	3.411573837	-0.097255580	2.503295884
Cl	3.425820118	-1.403950572	4.215226241
Cl	3.574122170	1.995257493	1.929771181
