29

H 	2.194816770	0.619017520	0.374895180
C 	4.116963000	-0.228787270	0.061964590
C 	2.770453670	-0.275270580	0.144255510
C 	1.927623480	-1.413402530	-0.267908850
O 	0.891594160	-1.193281690	-0.976350160
H 	4.664476540	-1.130900360	-0.217096410
C 	6.629086660	3.165864070	0.764359310
C 	7.178095550	1.883169640	0.658235940
C 	6.345639030	0.788559320	0.415437160
C 	4.949872930	0.953456260	0.290853360
C 	4.410314610	2.256010670	0.388082490
C 	5.245380530	3.346941100	0.622115610
H 	8.251644690	1.737390310	0.759079470
H 	6.773667380	-0.209157530	0.327164040
H 	3.342875220	2.417261070	0.255448640
H 	4.818838320	4.345710950	0.684840940
H 	7.275016250	4.022526470	0.945561330
N 	2.233130530	-2.691896350	0.065711590
C 	1.452053400	-3.799890130	-0.512358540
C 	3.193485660	-3.072333860	1.112367230
H 	0.986061030	-3.470235450	-1.441050170
H 	0.669733170	-4.127353430	0.185549300
H 	2.129428660	-4.638738510	-0.707101490
H 	4.079063210	-3.552729920	0.675706260
H 	2.710453890	-3.787219460	1.790043520
H 	3.500285330	-2.195415040	1.681536030
Zn	0.387979600	0.557463080	-1.934118200
Cl	0.105637030	0.068459100	-4.014825100
Cl	0.346431200	2.231766890	-0.541443200
