28

H 	-1.571644826	-1.421402300	0.001094465
C 	0.000000000	0.000000000	0.000000000
C 	-1.292594326	-0.369964012	0.000000000
C 	-2.438176624	0.553863460	0.000000000
O 	-3.601033384	0.116114508	0.000339462
H 	0.250490616	1.063117718	-0.000320031
C 	0.821534513	-2.408140795	-0.002947148
C 	1.202573482	-0.914809734	0.000963538
C 	2.039605139	-0.590124868	1.269825706
C 	2.047457440	-0.585695363	-1.261706749
H 	2.334867815	0.472606363	-1.282737109
H 	1.728734811	-3.022928736	-0.003131232
H 	0.236469721	-2.670550227	-0.891651519
H 	0.234318279	-2.674796881	0.883092461
H 	2.955986139	-1.192547723	1.275704958
H 	1.472444219	-0.815802434	2.180048420
H 	2.327418796	0.467961132	1.296206498
H 	2.964013337	-1.187807154	-1.264013967
H 	1.485997375	-0.808628644	-2.176147838
C 	-3.507685508	2.887024522	-0.008269734
C 	-2.213622047	2.065817836	0.003267747
H 	-4.122339357	2.665030402	0.869867334
H 	-4.108343452	2.662318741	-0.895487647
H 	-3.273188254	3.957312270	-0.008073373
H 	-1.605272826	2.309846716	0.886479824
H 	-1.586814255	2.313194823	-0.865668895
I 	-4.301475454	-2.516415839	-0.026056789
I 	-5.087967607	-5.195719579	-0.061279142
