28

H 	2.446693970	0.518112880	0.607338870
C 	4.290527640	-0.299967250	-0.049784190
C 	2.985912710	-0.366119560	0.272662980
C 	2.161463390	-1.585724370	0.217399760
O 	0.959677860	-1.551453960	0.535695120
H 	4.802818700	-1.205904470	-0.382319610
C 	4.435994140	2.188227820	0.472667330
C 	5.176989280	0.925145860	-0.009662440
C 	5.729668310	1.155495160	-1.444815500
C 	6.365933750	0.617131670	0.945365550
H 	6.913311750	-0.277164630	0.622491970
H 	5.124645190	3.040921890	0.484481780
H 	4.041766400	2.058882080	1.487357880
H 	3.599240160	2.439945280	-0.189186550
H 	6.428476700	2.001013360	-1.443601240
H 	4.917029500	1.380258230	-2.145496670
H 	6.265982380	0.271237620	-1.811108360
H 	7.066088120	1.461478580	0.952160330
H 	6.012129720	0.453718030	1.970104570
C 	1.795050570	-4.091201930	-0.221581850
C 	2.774547920	-2.911529400	-0.236236030
H 	0.944772380	-3.905286990	-0.885726510
H 	1.396712420	-4.259872200	0.784458530
H 	2.302814460	-5.004232970	-0.552713090
H 	3.185650790	-2.759837360	-1.245531630
H 	3.641551830	-3.116641420	0.408775120
I 	-0.383285780	0.655988870	1.399814990
I 	-1.823241250	2.871924810	2.301901380
