21

H 	-0.10070000	0.19050300	-0.22739700
C 	-0.04089200	-1.95766700	-0.18665300
C 	0.49942500	-0.70927600	-0.16205000
C 	1.92441100	-0.55548700	-0.04412800
O 	2.55659900	0.51325300	-0.00872900
H 	0.65388300	-2.79664000	-0.11421000
C 	-4.11449200	-3.17405900	-0.50995100
C 	-3.09257300	-4.12043100	-0.41815800
C 	-1.77020100	-3.70288000	-0.31303100
C 	-1.43889100	-2.33132000	-0.29846500
C 	-2.48631800	-1.38889600	-0.39270800
C 	-3.80540300	-1.80970700	-0.49706700
H 	-3.32726000	-5.18182600	-0.42747000
H 	-0.97596100	-4.44238800	-0.24040600
H 	-2.26919300	-0.32565200	-0.38335700
H 	-4.60061400	-1.07201300	-0.56842500
H 	-5.14984900	-3.49611900	-0.59181700
H 	2.51086700	-1.49376900	0.02128000
Sn	2.00454300	2.93902900	-0.09714000
Cl	0.61294600	2.70138100	-2.09639700
Cl	0.25343500	2.75768800	1.60626600
