31

H 	-1.461095011	-1.569228951	-0.037307122
C 	0.000000000	0.000000000	0.000000000
C 	-1.286439843	-0.496562803	0.000000000
C 	-2.488952475	0.304281667	0.000000000
O 	-3.624727571	-0.227416638	-0.059244021
H 	0.140197959	1.069587007	0.143890681
H 	0.316680387	-0.599780103	-2.639130923
H 	1.282447304	0.941304025	-2.253688306
H 	-0.552273999	1.042021235	-2.565902677
C 	0.324018033	0.442908902	-2.345338012
C 	-3.762524191	2.535808174	0.030140196
C 	-2.403002630	1.830388283	0.083807113
H 	-4.404790838	2.214330960	0.855978577
H 	-4.288503465	2.305988851	-0.902171365
H 	-3.626481789	3.621205542	0.095545539
H 	-1.871502575	2.085502405	1.012515901
H 	-1.754429814	2.179760969	-0.733063830
O 	4.723725418	-3.043130055	0.687693317
H 	5.484908025	-2.468823728	0.886286881
C 	3.597641954	-2.270806794	0.523152940
C 	2.395765461	-2.938712906	0.235191345
C 	1.225049716	-2.211905363	0.062395643
C 	1.213929487	-0.803067797	0.167973417
C 	2.433215742	-0.155411347	0.450572587
C 	3.613087031	-0.872712918	0.632531296
H 	2.400538528	-4.022386350	0.153027722
H 	0.307102272	-2.747816443	-0.162771188
H 	2.452845693	0.929874257	0.532901168
H 	4.543036441	-0.352068838	0.858219113
I 	-3.992636465	-2.857062685	-0.388746243
I 	-4.439338285	-5.600271661	-0.776188230
