31

H 	1.540201820	2.058489920	-0.585148270
C 	3.415802760	1.029379450	-0.693713570
C 	2.048267810	1.099040280	-0.522428650
C 	1.179370180	-0.011415380	-0.204948340
O 	-0.048496480	0.162593250	-0.002245290
H 	3.884275400	0.047762140	-0.740721370
H 	3.867255280	2.102640260	1.766393860
H 	5.224779920	0.891633830	1.380441010
H 	3.582384970	0.282879000	2.018561640
C 	4.176687980	1.079955390	1.585489000
C 	0.701481150	-2.492134580	0.273364690
C 	1.741053150	-1.433382360	-0.114409690
H 	-0.114698640	-2.526478860	-0.455579800
H 	0.259043390	-2.269468710	1.250265570
H 	1.170649990	-3.481691330	0.320017020
H 	2.196651300	-1.676129760	-1.086489740
H 	2.572337490	-1.425250200	0.606436180
O 	6.698785690	5.284064070	-2.487256700
H 	7.577866580	4.961998370	-2.757906580
C 	5.933625980	4.222520690	-2.059884030
C 	4.622671590	4.504861560	-1.639668750
C 	3.802069320	3.475950880	-1.195784890
C 	4.256662520	2.138297890	-1.156916600
C 	5.577351020	1.880663020	-1.578099630
C 	6.410426050	2.903528220	-2.028335890
H 	4.268871560	5.532448410	-1.668024470
H 	2.794135630	3.717962790	-0.869737170
H 	5.955703610	0.859816300	-1.552488470
H 	7.426318270	2.680637210	-2.353842780
I 	-1.180597090	2.586038400	0.109166830
I 	-2.401331610	5.105416570	0.282796270
