31

H 	1.527553189	2.077335681	-0.539432614
C 	3.404199631	1.048342166	-0.673747290
C 	2.038785623	1.118632290	-0.494287065
C 	1.178925000	-0.002681513	-0.193149952
O 	-0.049192609	0.156267511	0.013393884
H 	3.867658730	0.065107045	-0.726951821
H 	3.863282785	2.125107346	1.786914017
H 	5.220296667	0.915229864	1.398427414
H 	3.581925625	0.305715937	2.045000791
C 	4.173267815	1.102588455	1.608216303
C 	0.719571018	-2.493082027	0.242169580
C 	1.750208544	-1.421490698	-0.129683281
H 	-0.099203848	-2.519312825	-0.483628423
H 	0.279892664	-2.292044267	1.224484564
H 	1.195078664	-3.480042529	0.268136626
H 	2.203865067	-1.643997084	-1.106802620
H 	2.582833713	-1.420911411	0.589149871
O 	6.721763967	5.248132432	-2.518380869
H 	7.594880142	4.911997462	-2.789208396
C 	5.946408327	4.203059333	-2.073109527
C 	4.642945455	4.505589477	-1.645339011
C 	3.812032708	3.490801789	-1.188750715
C 	4.251039597	2.148740316	-1.141447769
C 	5.564834710	1.871412320	-1.569246461
C 	6.406178941	2.878649690	-2.035443348
H 	4.301860812	5.536886711	-1.680110507
H 	2.808721904	3.746888527	-0.859637804
H 	5.929227545	0.846081677	-1.538863763
H 	7.415605815	2.640497768	-2.368838315
I 	-1.213649200	2.562639906	0.124658180
I 	-2.481192412	5.060485369	0.294809715
