33

H 	1.369551160	1.786813110	-0.942367210
C 	3.303171160	0.978864270	-0.531438380
C 	1.927640780	0.928215700	-0.580950710
C 	1.087434660	-0.038109590	0.138286990
O 	0.077925430	0.368683930	0.784259500
H 	3.852828370	0.082617920	-0.251347520
H 	3.314333880	2.618561280	1.605763760
H 	4.786993460	1.483500450	1.688529260
H 	3.106860780	0.885622570	2.226982300
C 	3.709412970	1.613605560	1.693195190
N 	1.410336200	-1.371497630	0.163292580
C 	2.264573610	-2.028163610	-0.833267520
C 	0.647659870	-2.276147240	1.034657450
H 	2.546921410	-1.320444250	-1.612685050
H 	1.710714110	-2.857111730	-1.294824210
H 	3.171346140	-2.438626490	-0.367178740
H 	1.322272850	-3.052167910	1.415312460
H 	-0.171161220	-2.759576670	0.481807370
H 	0.222845390	-1.707367600	1.862435040
O 	6.420925160	5.028282610	-2.996899810
H 	7.335803500	4.726781620	-3.142070880
C 	5.699095230	4.017089080	-2.395884390
C 	4.354919660	4.282553200	-2.089986710
C 	3.576391780	3.302931920	-1.483928600
C 	4.108458820	2.033486210	-1.170362550
C 	5.463569920	1.796105610	-1.467715220
C 	6.255265230	2.769724360	-2.079160990
H 	3.942882660	5.261467730	-2.322309480
H 	2.546761030	3.537859130	-1.227057330
H 	5.905150730	0.831686520	-1.219543990
H 	7.300786730	2.562464800	-2.306530430
I 	-0.074469800	2.961276330	1.366437400
I 	-0.195868960	5.685515020	2.019247750
