33

H 	1.540801300	2.175888380	0.986582170
C 	3.590767490	1.446650470	0.497047510
C 	2.096244320	1.379842810	0.497606880
C 	1.314254340	0.376550110	-0.155289060
O 	0.047075400	0.456746830	-0.168293890
H 	3.989654000	0.438703300	0.691807720
H 	5.215733780	2.426311850	1.574659840
H 	3.783384570	2.090711880	2.579695140
C 	4.120697160	2.407096530	1.585331460
H 	3.760354890	3.426655810	1.405032730
C 	0.972955030	-1.796138790	-1.465044580
C 	1.966557320	-0.806612940	-0.845515990
H 	0.348569970	-1.304855000	-2.218526300
H 	0.303835030	-2.212870080	-0.704909580
H 	1.514626750	-2.619686170	-1.943357690
H 	2.654636280	-0.408336100	-1.606075290
H 	2.614629230	-1.308951080	-0.109538420
C 	5.038910820	2.608727600	-3.436330360
C 	3.976841960	3.303224720	-2.846281990
C 	3.503454880	2.925453450	-1.585984100
C 	4.089130810	1.845853030	-0.902104200
C 	5.144261110	1.145622390	-1.505082030
C 	5.623196450	1.529066000	-2.761919240
H 	3.512925340	4.138096290	-3.367390030
H 	2.672230660	3.466580770	-1.139160450
H 	5.597958010	0.303064410	-0.984965040
H 	6.450595840	0.985655920	-3.214095990
H 	5.407808750	2.903538710	-4.416472350
Ti	-1.531381760	1.770952770	0.482532000
Cl	-3.090951580	3.216905560	1.200269290
Cl	-0.747768060	1.281967240	2.548646610
Cl	-0.469451050	3.280112250	-0.839549620
Cl	-2.911702610	0.310985690	-0.487689810
