26

H 	1.499462890	2.414012960	1.058872210
C 	3.380547810	1.434992560	0.318179160
C 	1.903260380	1.709557650	0.336077200
C 	0.905901180	1.049283890	-0.486026890
O 	-0.330900580	1.170879510	-0.266067390
H 	3.517036030	0.352131520	0.487046800
H 	5.162329490	1.943955110	1.480960510
H 	3.657805860	1.914631880	2.434162650
C 	4.094887990	2.188247620	1.466644920
H 	3.993684560	3.272229460	1.336044150
N 	1.332165150	0.233885320	-1.509353740
H 	0.612802350	-0.139590790	-2.119664030
H 	2.269421080	0.329894980	-1.885748600
C 	3.807868820	2.969921690	-1.685652460
C 	4.437024040	3.274046170	-2.896228920
C 	5.303268940	2.333589380	-3.452881600
C 	5.553640670	1.107654880	-2.843248930
C 	4.912280720	0.821900590	-1.631195520
C 	4.037324560	1.744328370	-1.035346050
H 	3.127627820	3.695088640	-1.242833900
H 	4.264156060	4.219672980	-3.403602630
F 	5.927200380	2.623906720	-4.640259020
H 	6.236437420	0.399859950	-3.306364110
H 	5.103288730	-0.131530710	-1.140792560
I 	-1.269435850	2.011253200	2.106027110
I 	-2.283330190	2.809893050	4.581745330
