26

H 	1.517528466	2.425360147	1.024943200
C 	3.406926999	1.421186538	0.336796123
C 	1.929958337	1.688719541	0.340741759
C 	0.948551585	1.010615151	-0.484306443
O 	-0.292206509	1.161958418	-0.312320477
H 	3.551236945	0.338284392	0.492060177
H 	5.180558960	1.925003398	1.508323871
H 	3.673012714	1.888099597	2.455210693
C 	4.112984156	2.167498732	1.491310653
H 	4.011814252	3.252049313	1.367666853
N 	1.391627385	0.148101479	-1.459672146
H 	0.682579920	-0.233909135	-2.076101966
H 	2.335551931	0.227394981	-1.822207433
C 	3.827217449	2.998110340	-1.628075109
C 	4.420091486	3.315447672	-2.851551301
C 	5.238341206	2.366073697	-3.460963399
C 	5.481610946	1.120911062	-2.890230196
C 	4.878047720	0.822575796	-1.662597559
C 	4.049099082	1.752015420	-1.016218399
H 	3.180553725	3.727588081	-1.145605434
H 	4.254472688	4.275221278	-3.333327508
F 	5.817437470	2.667250113	-4.663765229
H 	6.127602778	0.408716126	-3.396299761
H 	5.062110625	-0.146046499	-1.200812453
I 	-1.284079819	2.072039704	2.009223629
I 	-2.346874188	2.953431236	4.438271541
