26

H 	0.541580930	-1.671592960	0.154121570
C 	-0.734574330	-0.027580710	0.946872790
C 	0.434865260	-0.584835410	0.212712620
C 	1.429420750	0.106732480	-0.514903380
O 	2.384651890	-0.433550300	-1.128368480
H 	-0.606075500	1.050119700	1.091582360
H 	-1.854473380	-0.313499870	2.787727250
H 	-0.093143640	-0.502072680	2.978992010
C 	-0.944563900	-0.704913670	2.319519050
H 	-1.047708930	-1.790574060	2.218852060
I 	1.373219510	2.278067710	-0.586483710
C 	-4.088060720	-0.573583520	-1.770196670
C 	-3.635770850	0.715677910	-1.455567850
C 	-2.545108460	0.886884890	-0.599987480
C 	-1.915784010	-0.228648410	-0.022318570
C 	-2.363058270	-1.521930500	-0.357964890
C 	-3.446902780	-1.690965240	-1.221570090
H 	-4.134429870	1.585945180	-1.877230800
H 	-2.189542010	1.887367110	-0.363328990
H 	-1.867622630	-2.396625230	0.056366110
H 	-3.787182080	-2.693744330	-1.470394520
H 	-4.930932650	-0.705392260	-2.445281770
Al	3.008806540	-2.214642580	-1.388169920
F 	1.718339580	-3.139021310	-0.794044630
F 	4.376072320	-2.247402500	-0.421105120
F 	3.220829640	-2.291425240	-3.045641830
