68

C 	-1.940039510	1.347897070	0.690812320
C 	-0.666490800	0.605881070	0.957662940
C 	-0.571146900	-0.581684370	1.769328290
O 	0.478896730	-1.215102660	1.978922720
H 	0.181089970	-4.697569720	-2.488641410
H 	-2.761581380	0.622035050	0.645978130
H 	0.276134560	0.991908800	0.577107430
H 	5.428224150	1.251460860	1.457391460
H 	4.161393550	0.374815460	2.344501370
H 	-0.169483190	-4.159864050	-0.836114920
H 	5.273118420	-0.515654660	1.292008050
C 	-1.885101320	2.131276230	-0.639605850
H 	-1.062952900	2.854305940	-0.633129600
H 	1.504043830	-4.479969510	-1.328092500
H 	-1.410228260	-1.335808660	-0.776220640
H 	-2.823758200	2.675717550	-0.792847050
H 	-1.732125210	1.448332030	-1.481498300
N 	2.833393720	-0.544185560	0.146614550
C 	2.401729550	-1.053277150	-1.073020560
N 	1.270066360	-1.843317650	-0.973045860
C 	3.773580740	0.589500870	0.198093510
H 	2.192741440	-0.642139410	0.936093610
C 	0.728962120	-2.608345910	-2.100720250
H 	0.907525440	-2.027998570	-0.042436630
H 	4.357626410	0.515958340	-0.725546460
C 	0.544102670	-4.073974180	-1.665831550
C 	4.715692310	0.420564740	1.398272770
H 	2.510185700	1.673127770	-1.923063710
H 	1.498708800	-2.562779770	-2.879829780
C 	3.016307410	1.924686860	0.157240820
C 	2.877740280	2.760168010	1.275863980
C 	2.159305500	3.960668200	1.191509360
C 	1.562789370	4.341007820	-0.014248590
C 	1.688420460	3.510223200	-1.135852040
C 	2.409001270	2.316364210	-1.051531880
H 	3.337415600	2.486438350	2.222116790
H 	2.070270430	4.597522490	2.069987450
H 	1.007036930	5.274275990	-0.081423160
H 	1.230804570	3.798151860	-2.080767730
C 	-0.560835290	-1.935758750	-2.704529520
C 	-1.019409510	-2.727336160	-3.952181600
H 	-1.837600250	-2.196922620	-4.455637910
H 	-1.384719220	-3.727906000	-3.694648300
H 	-0.197873510	-2.836814520	-4.672190960
C 	-0.210717720	-0.493373680	-3.138455900
H 	0.609957880	-0.489082050	-3.864238250
H 	-1.085115240	-0.013651960	-3.597127050
H 	0.103470160	0.111701500	-2.282612340
C 	-1.709157940	-1.890440060	-1.672998010
H 	-2.027225930	-2.894402370	-1.367579540
H 	-2.583129710	-1.381570550	-2.099257130
O 	2.976019120	-0.826036450	-2.148386670
O 	-1.778877530	-0.983363440	2.286541610
C 	-1.735808400	-2.177478730	3.116196540
H 	-1.068119110	-2.023378300	3.969957830
H 	-1.382848780	-3.034813710	2.533211290
H 	-2.764187960	-2.330582470	3.448662630
C 	-2.789976050	3.993275820	4.042608230
C 	-1.591812160	4.120703050	3.329037290
C 	-1.314154740	3.264248580	2.260546460
C 	-2.234582020	2.270605500	1.886039350
C 	-3.425042000	2.136768230	2.614879000
C 	-3.705693970	2.997136490	3.682507470
H 	-0.871057480	4.887662500	3.607045030
H 	-0.378573550	3.366125010	1.717803970
H 	-4.135612630	1.358627490	2.342247600
H 	-4.639338990	2.889473620	4.231910400
H 	-3.006770730	4.661092150	4.874007980
