22

H 	  1.950319	  0.912309	  0.002025
C 	  0.000000	  0.000000	  0.000000
C 	  1.363844	  0.000000	  0.000000
C 	  2.061744	 -1.248510	  0.000000
O 	  3.308629	 -1.415044	  0.002637
H 	 -0.503142	 -0.970162	  0.001521
C 	 -2.666044	  3.326184	  0.011748
C 	 -1.281465	  3.553915	 -0.010667
C 	 -0.394331	  2.483002	 -0.015167
C 	 -0.878284	  1.152732	  0.001758
C 	 -2.276410	  0.941323	  0.022739
C 	 -3.161659	  2.017317	  0.028330
H 	 -0.899115	  4.571719	 -0.024523
H 	  0.675189	  2.672649	 -0.033300
H 	 -2.658054	 -0.077821	  0.035029
H 	 -4.234177	  1.839317	  0.045109
H 	 -3.354112	  4.168474	  0.015595
H 	  1.454403	 -2.167659	 -0.001456
B 	  4.427681	 -0.123161	  0.006219
F 	  4.118419	  0.580408	  1.157390
F 	  4.139743	  0.566072	 -1.158702
F 	  5.624592	 -0.774415	  0.022077
