22

H 	1.950319134	0.912309185	0.002024773
C 	0.000000000	0.000000000	0.000000000
C 	1.363844271	-0.000000000	-0.000000000
C 	2.061743620	-1.248510339	-0.000000000
O 	3.308628508	-1.415044287	0.002637405
H 	-0.503141683	-0.970162321	0.001521298
C 	-2.666043502	3.326183562	0.011747580
C 	-1.281465386	3.553915189	-0.010667101
C 	-0.394330713	2.483001712	-0.015166564
C 	-0.878283902	1.152731891	0.001758102
C 	-2.276409535	0.941323420	0.022738629
C 	-3.161658528	2.017317236	0.028329861
H 	-0.899114738	4.571718955	-0.024522498
H 	0.675188552	2.672649275	-0.033299637
H 	-2.658053941	-0.077821042	0.035029057
H 	-4.234176719	1.839317194	0.045108925
H 	-3.354111525	4.168474147	0.015595430
H 	1.454402850	-2.167659261	-0.001455700
B 	4.427680602	-0.123160901	0.006219453
F 	4.118419305	0.580408396	1.157390396
F 	4.139742980	0.566071786	-1.158701779
F 	5.624591541	-0.774415436	0.022077368
