24

H 	2.281583030	0.851227100	0.184069380
C 	4.168413920	-0.137040700	0.303980170
C 	2.818235610	-0.088072930	0.264356700
C 	1.948947020	-1.268965070	0.265938200
O 	0.745433950	-1.247722450	-0.146848700
H 	4.666493750	-1.109026630	0.310062700
C 	6.475578090	0.749074100	0.294356130
C 	7.394169810	1.801025370	0.290344900
C 	6.950265320	3.126860620	0.290592120
C 	5.572842070	3.363517600	0.294098680
C 	4.635794590	2.341456980	0.296133000
C 	5.085801590	1.001576770	0.296952430
H 	6.830690300	-0.279664660	0.292860380
H 	8.461349310	1.591158720	0.286179290
H 	7.643763450	3.963601530	0.287242160
F 	5.133191210	4.660641170	0.296851340
H 	3.578947010	2.591127910	0.294223430
N 	2.413125990	-2.451432740	0.730443360
H 	1.787548800	-3.249807230	0.722697900
H 	3.287581910	-2.518901690	1.232605820
B 	0.017825390	0.047458980	-0.911431980
F 	0.029101140	1.077561070	0.026569440
F 	-1.227494250	-0.442702550	-1.203962400
F 	0.825238420	0.302866260	-2.012339920
