30

H 	2.636745994	0.600119014	-0.399449737
C 	4.410382526	-0.297214962	0.329447140
C 	3.095898837	-0.300298229	-0.010123529
C 	2.213246662	-1.443884945	0.104561257
O 	1.001032550	-1.373125655	-0.225676141
H 	4.857945502	-1.209394304	0.723426440
O 	5.472710477	4.388439427	-0.830745498
H 	4.531726422	4.395075295	-1.083405561
C 	5.815436535	3.144007417	-0.355497126
C 	7.149772136	2.967536410	0.056451336
C 	7.560794773	1.729065181	0.547757986
C 	6.659875489	0.665561273	0.634339997
C 	5.319465787	0.833148457	0.224387490
C 	4.907383623	2.089929414	-0.273025225
H 	7.838595102	3.805033062	-0.017191913
H 	8.591943882	1.594453971	0.865393421
H 	3.880366628	2.244164520	-0.596558945
H 	6.985201961	-0.298357382	1.018334167
C 	1.646430097	-3.878819208	0.676223725
C 	2.715845452	-2.781899256	0.629401638
H 	1.238209399	-4.074422965	-0.320143099
H 	0.812169496	-3.588714193	1.322325127
H 	2.082094457	-4.806116736	1.063541427
H 	3.562622997	-3.090423948	-0.000678645
H 	3.137715080	-2.608440164	1.630243388
Sn	-0.379775346	0.362547405	-1.063149665
Cl	0.253108243	1.477060066	0.950119685
Cl	-1.951607098	-1.396013176	-0.954845594
Cl	-1.819773192	2.079923697	-1.904940683
Cl	1.187996209	0.394182036	-2.862625003
