55
GO, Rch=S
C	-0.73826030	-0.72535799	 1.19880164
C	 0.42292943	-1.01296103	 0.32281126
C	 1.33925606	-2.23458442	 0.52176299
O	 2.28150058	-2.51915619	-0.22751648
H	 2.27185905	-4.97267884	-4.43597722
H	-0.38996116	-0.59614041	 2.23309628
H	 0.16307758	-0.97722018	-0.80513804
Xx	 1.12929840	-2.80848576	 1.30064362
H	 6.69419651	 0.11532121	 0.24503284
H	 5.59704919	-1.13606748	 0.84705380
H	 1.83425312	-4.77409065	-2.73399597
H	 6.47947058	-1.39948859	-0.66145324
C	-1.74582674	-1.89685385	 1.18528062
H	-2.10343550	-2.08731303	 0.17471734
H	 3.46329796	-4.37066235	-3.28266044
Xx	-1.19548909	 0.10335558	 0.90849897
H	-2.59493836	-1.64939715	 1.82188832
H	-1.26558358	-2.79673788	 1.56703627
N	 3.85735168	-1.02822978	-1.27910642
C	 3.46352628	-1.25830515	-2.58660181
N	 2.32220836	-2.05664235	-2.65691716
C	 4.82745294	-0.01265685	-0.87627674
H	 3.31010424	-1.44938527	-0.54001122
C	 1.99916643	-2.87358855	-3.83040765
H	 2.05127729	-2.47750285	-1.77844607
H	 5.24604203	 0.36778748	-1.81043287
C	 2.40537981	-4.33462933	-3.55935725
C	 5.96699270	-0.64454880	-0.05857702
H	 4.30144368	 2.48007159	-1.84596384
H	 2.63365600	-2.48785215	-4.63312328
C	 4.14371277	 1.15554869	-0.15562666
C	 3.67413174	 1.04697448	 1.16191224
C	 3.03030773	 2.11383402	 1.78714452
C	 2.84578745	 3.31938000	 1.10960952
C	 3.30916277	 3.44351065	-0.19944444
C	 3.94898242	 2.37129183	-0.82265779
H	 3.80515259	 0.12135604	 1.71676065
H	 2.67564708	 2.00439700	 2.81041260
H	 2.34969423	 4.15440970	 1.59992622
H	 3.17668838	 4.37913731	-0.73897414
C	 0.50883852	-2.65932092	-4.29645675
C	 0.21804208	-3.53183527	-5.53637559
H	-0.75543660	-3.26717674	-5.96238377
H	 0.18653144	-4.59833957	-5.29674069
H	 0.97042871	-3.38239271	-6.31861475
C	 0.32499901	-1.17896462	-4.69093615
H	 0.99594103	-0.90069572	-5.51003474
H	-0.70319532	-0.99617351	-5.02134861
H	 0.53567294	-0.51292437	-3.85082376
C	-0.50866919	-3.00944882	-3.18991285
H	-0.42554107	-4.05014574	-2.86059886
H	-1.53022147	-2.87008165	-3.56016572
H	-0.39302161	-2.36326043	-2.31575009
H	 1.02302936	-0.18560366	 0.67175233
S	 4.31260902	-0.58114632	-4.03457088
