37

H 	1.980186665	0.959264736	0.138067520
C 	0.000000000	0.000000000	0.000000000
C 	1.491872834	-0.000000000	0.000000000
C 	2.396415576	-1.120567938	-0.000000000
O 	3.572649915	-1.035039136	0.512717666
H 	-0.380664049	-1.008766482	-0.185892746
H 	-1.597058954	0.941808429	-1.176940539
H 	-0.131300167	0.590707277	-2.106665489
C 	-0.504131383	0.931355147	-1.133875961
H 	-0.150312497	1.957157501	-0.990025109
N 	2.035138115	-2.353218485	-0.472574810
C 	2.934837514	-3.488096677	-0.214710892
C 	1.040460135	-2.565682833	-1.532024647
H 	3.378749824	-3.390300607	0.776139831
H 	3.746585575	-3.523555918	-0.954503753
H 	2.348751498	-4.410193489	-0.277865826
H 	0.182280712	-3.141675727	-1.163355574
H 	1.514090489	-3.130866433	-2.344696324
H 	0.698280290	-1.615493676	-1.938362014
C 	-0.182688801	1.797321447	1.875326483
C 	-0.583176482	0.373728093	1.436987101
C 	-0.046028860	-0.657720689	2.455380988
C 	-2.123190252	0.262593327	1.389368988
H 	-2.442045404	-0.719535238	1.015947868
H 	-0.613528558	2.012070677	2.860771794
H 	-0.558261023	2.557115770	1.180940249
H 	0.902010727	1.907918965	1.963832951
H 	-0.488707415	-0.479745613	3.442556129
H 	1.040826944	-0.591256893	2.561991107
H 	-0.304045847	-1.681074445	2.151733267
H 	-2.531434881	0.383937282	2.400071127
H 	-2.576159231	1.034497341	0.758513801
Sn	4.961437629	0.617683542	1.200287177
Cl	3.409981738	0.935115583	2.989239331
Cl	4.482483026	1.610530626	-0.924764076
Cl	6.507606459	2.314517853	1.909912931
Cl	6.463952913	-1.213575247	1.310649501
