37

H 	1.648107242	2.042813515	0.632069589
C 	3.564968898	1.052476262	0.179008647
C 	2.078588416	1.105192643	0.295535890
C 	1.103142267	0.133538792	-0.126676948
O 	-0.090994887	0.479038087	-0.455901029
H 	3.887519666	0.053118696	-0.128101275
H 	5.282581836	1.317713148	1.521485701
H 	3.849550318	0.642818588	2.313348898
C 	4.190642079	1.366064626	1.563725572
H 	3.898253881	2.361090516	1.913845497
N 	1.407145892	-1.192763432	-0.274257204
C 	0.421545803	-2.063070862	-0.933847046
C 	2.441736056	-1.887950425	0.502465127
H 	-0.068169929	-1.520462305	-1.742649754
H 	-0.349307624	-2.394162365	-0.224164610
H 	0.947825144	-2.937642308	-1.328692249
H 	3.238537851	-2.270688288	-0.147746569
H 	1.976628905	-2.737741385	1.017949493
H 	2.867713200	-1.229187701	1.257204607
C 	3.764006710	3.487260461	-0.722544930
C 	4.092564053	2.003737874	-0.987800730
C 	3.433649210	1.550465501	-2.310644505
C 	5.622137071	1.828671150	-1.114366353
H 	5.895075357	0.772207208	-1.237155161
H 	4.153864478	4.101309323	-1.543396624
H 	4.226314281	3.846601544	0.203554333
H 	2.685811191	3.663886647	-0.668361117
H 	3.832771912	2.131926910	-3.150143097
H 	2.349396561	1.695667283	-2.291900716
H 	3.639445629	0.490165546	-2.509238197
H 	5.981920812	2.371060298	-1.997132754
H 	6.158901695	2.224292222	-0.245825810
Sn	-1.402596500	2.313204660	-0.235652101
Cl	0.066832037	3.335888678	-1.817747379
Cl	-0.743999814	2.243279588	2.064857964
Cl	-2.869277767	4.202219714	-0.003441790
Cl	-3.026899669	0.775096672	-1.022483599
