35

H 	-1.607801000	1.354567000	-0.179606000
C 	0.000000000	-0.000000000	0.000000000
C 	-1.301329000	0.324140000	0.000000000
C 	-2.442174000	-0.631557000	0.000000000
O 	-3.374889000	-0.464420000	-0.826145000
H 	0.308771000	-1.041612000	0.101540000
H 	-0.127895230	0.841260990	-2.109594500
H 	0.969832460	-0.680968260	-2.029019310
H 	-0.896187990	-0.840000130	-1.832453680
C 	-0.015350640	-0.231083690	-1.996738830
N 	-2.462758000	-1.695043000	0.856447000
C 	-1.569851000	-1.869485000	2.006406000
C 	-3.528996000	-2.698369000	0.733181000
H 	-1.014001000	-0.953064000	2.198915000
H 	-2.174288000	-2.110987000	2.889960000
H 	-0.862395000	-2.693189000	1.838005000
H 	-3.087775000	-3.701158000	0.783131000
H 	-4.253498000	-2.590894000	1.552119000
H 	-4.041522000	-2.561827000	-0.218443000
C 	1.158736200	1.330554290	0.388149850
C 	2.344364610	1.078066980	-0.532020810
C 	3.521825190	0.487356300	-0.052131710
C 	4.593096490	0.225265410	-0.914146710
C 	4.495837780	0.551370510	-2.270843650
C 	3.321838150	1.136800780	-2.758963840
C 	2.254240080	1.397812690	-1.895761940
H 	1.490381410	1.271026300	1.435443070
H 	0.768135710	2.344773620	0.235400590
H 	3.604581570	0.237886060	1.004952220
H 	5.502808400	-0.227568960	-0.525062290
H 	5.328185910	0.352194530	-2.942442280
H 	3.236603070	1.393516110	-3.812767250
H 	1.344924680	1.846162060	-2.290532500
I 	-3.943571000	1.899149000	-2.017856000
I 	-4.661766000	4.359287000	-3.119665000
