35

H 	-1.786053840	1.556137791	0.399972146
C 	-0.103978407	0.285394949	0.168975829
C 	-1.420174201	0.531735681	0.426194117
C 	-2.496087427	-0.474732791	0.414431412
O 	-3.577517375	-0.231054932	-0.190467040
H 	0.282689320	-0.729681727	0.215543492
H 	-0.387185616	0.727591396	-2.568727768
H 	0.817889405	-0.673581357	-2.325660316
H 	-1.018684989	-0.958340669	-2.140726569
C 	-0.181957510	-0.272433720	-2.207264075
N 	-2.319526481	-1.695860834	1.010181302
C 	-1.330921033	-1.969443564	2.058760482
C 	-3.343378250	-2.732192296	0.826256789
H 	-0.810824660	-1.053160176	2.335586585
H 	-1.845349537	-2.364616983	2.944868391
H 	-0.598052678	-2.716414866	1.724654208
H 	-2.851901057	-3.710897525	0.784144324
H 	-4.059713588	-2.731567534	1.660412209
H 	-3.885669609	-2.543526581	-0.100291124
C 	0.931825363	1.395938589	0.185303883
C 	2.176055465	1.118661214	-0.633867036
C 	3.072039396	0.108966920	-0.248603647
C 	4.197828170	-0.182831690	-1.024186848
C 	4.448165381	0.539608990	-2.196765472
C 	3.568838851	1.556945450	-2.581972822
C 	2.442151520	1.842851494	-1.804092247
H 	1.227939713	1.545488595	1.237136036
H 	0.463237927	2.331855905	-0.140363443
H 	2.888311404	-0.453736886	0.666065548
H 	4.882063237	-0.969140423	-0.711937786
H 	5.323661100	0.314278048	-2.801610017
H 	3.756767616	2.126024879	-3.489861570
H 	1.755142465	2.627697884	-2.115082583
I 	-3.644093035	1.672488029	-2.030511262
I 	-3.695422190	3.621512329	-4.047039701
