28

C 	0.559502858	1.381783562	0.000000000
C 	0.000000000	0.000000000	0.000000000
H 	-1.078075211	0.066978510	0.186091216
C 	-0.189970982	2.617726627	0.000000000
H 	1.638836279	1.519735813	-0.002763500
O 	0.316560116	3.741375736	-0.030028344
C 	0.643489975	-0.805854988	1.158691110
H 	0.241307055	-1.822665299	1.206617446
H 	0.433358760	-0.316385615	2.115905144
H 	1.731771864	-0.869110451	1.048489477
O 	-1.560853553	2.419495272	0.036240919
C 	-2.349952449	3.636792014	0.024432787
H 	-2.156458913	4.210254240	-0.888430050
H 	-2.108190206	4.260103658	0.891751821
H 	-3.390026427	3.306978171	0.061408125
C 	-0.538072747	0.193147176	-2.482006713
C 	0.142841635	-0.702203189	-1.421454438
C 	-0.582815560	-2.064795316	-1.390898771
C 	1.621890814	-0.914556407	-1.808504304
H 	2.138017117	-1.573971520	-1.101920954
H 	-0.525674122	-0.301412813	-3.461028572
H 	-0.022343989	1.155027193	-2.583667106
H 	-1.581298558	0.398385626	-2.214334944
H 	-0.580894715	-2.510921761	-2.393422611
H 	-1.627898170	-1.948314238	-1.076939953
H 	-0.098732235	-2.776703666	-0.714153630
H 	1.684365401	-1.379837043	-2.800081995
H 	2.167522031	0.035002730	-1.854246858
