28

C 	0.054880300	0.439344930	0.322701660
C 	0.877514700	-0.805420330	0.348289590
H 	0.284154690	-1.617290030	-0.088154580
C 	-1.237838040	0.607621340	-0.304926190
H 	0.431105140	1.337586870	0.808672370
O 	-1.856237650	1.673626490	-0.356953910
C 	1.188914080	-1.174492160	1.823369590
H 	1.784240080	-2.091754420	1.884684870
H 	0.255022260	-1.342345450	2.371625300
H 	1.735666470	-0.372051600	2.331819810
O 	-1.726813990	-0.568022850	-0.854115170
C 	-3.026549700	-0.445680570	-1.491893790
H 	-2.981204300	0.268347500	-2.321164350
H 	-3.776307120	-0.104794550	-0.769769550
H 	-3.264177370	-1.448049430	-1.854503330
C 	1.727648270	-0.294425890	-1.996541750
C 	2.173482420	-0.681433530	-0.566088430
C 	2.884612420	-2.051520350	-0.626542630
C 	3.155336530	0.384751080	-0.032395430
H 	3.529791010	0.130532410	0.966015400
H 	2.590198690	-0.281954320	-2.674614510
H 	1.268574740	0.701205390	-2.015217790
H 	0.994636310	-1.010777150	-2.387813040
H 	3.719120450	-2.008561620	-1.338299630
H 	2.196877960	-2.838581270	-0.961635190
H 	3.296873200	-2.346832470	0.344822760
H 	4.022227610	0.460308430	-0.700999290
H 	2.689201340	1.375871660	0.016820100
