28

C 	0.045947173	0.420537586	0.386261449
C 	0.877359189	-0.816829230	0.393093820
H 	0.277954114	-1.634560836	-0.023308387
C 	-1.231992093	0.599570698	-0.264956391
H 	0.401712609	1.304581582	0.911519729
O 	-1.872062238	1.653306018	-0.268811064
C 	1.237004001	-1.176024946	1.858590576
H 	1.830563984	-2.094266641	1.908289460
H 	0.322041818	-1.336018823	2.439314491
H 	1.802534610	-0.371909304	2.342404890
O 	-1.681272482	-0.547059130	-0.900027463
C 	-2.956201981	-0.404888608	-1.577500838
H 	-2.892544854	0.361462539	-2.357418091
H 	-3.739823233	-0.122116735	-0.866736113
H 	-3.162473911	-1.384491972	-2.013077889
C 	1.653945262	-0.335764819	-1.984441993
C 	2.144643332	-0.690158609	-0.561878025
C 	2.875929603	-2.048857255	-0.619564222
C 	3.121692545	0.400681391	-0.074096423
H 	3.524050086	0.173519829	0.919372608
H 	2.498489993	-0.318837163	-2.684216786
H 	1.176510675	0.650647195	-2.008352435
H 	0.924312335	-1.070534981	-2.344774744
H 	3.689418812	-2.003642533	-1.354599923
H 	2.192707369	-2.852087701	-0.923478475
H 	3.319160816	-2.321829740	0.343849637
H 	3.970806366	0.476069324	-0.764703289
H 	2.640536599	1.384710971	-0.033561219
