13
GO, R2=Br, R1=Cl, Rcat=TiCl4
H	 0.09039378	-1.80988465	-0.51555853
C	-0.90781845	-0.00771283	-0.04943451
C	 0.18266548	-0.75219647	-0.26512258
C	 1.55928918	-0.22013974	-0.18291419
O	 1.86635738	 0.93365884	 0.07180470
H	-0.82431619	 1.04491294	 0.20242594
Br	-2.66074883	-0.75641151	-0.17102959
Cl	 2.81900880	-1.40969238	-0.49222146
Ti	 2.35860723	 5.98168367	 2.01084981
Cl	 2.11649976	 4.00970191	 1.24030281
Cl	 2.13992811	 5.94795629	 4.13031027
Cl	 0.87988346	 7.26155523	 1.16446008
Cl	 4.29811760	 6.70752125	 1.50832605
