26

H 	2.523198320	0.309605740	-1.208010480
C 	4.206189490	-0.450774180	-0.155975510
C 	2.933800280	-0.524663910	-0.644384930
C 	1.966277300	-1.531999640	-0.273370390
O 	0.716305850	-1.239475650	-0.161695090
H 	4.588555070	-1.211237910	0.523451970
C 	6.319788790	0.754324720	0.349260780
H 	7.073556700	1.231698040	-0.285273260
H 	6.710263080	-0.214580890	0.677560340
H 	6.148959460	1.383459400	1.234729900
N 	5.091880100	0.542987430	-0.420510390
H 	4.754270540	1.328846490	-0.969398330
N 	2.310858160	-2.828990640	-0.030716660
C 	3.532792290	-3.467643190	-0.537475470
C 	1.321719560	-3.748452470	0.556837760
H 	4.027584900	-2.814375080	-1.257240920
H 	3.259876920	-4.406098750	-1.037091570
H 	4.228725780	-3.704629710	0.279167680
H 	1.838033630	-4.418273470	1.254185680
H 	0.840575110	-4.350826850	-0.226275620
H 	0.556364250	-3.177076440	1.080740730
Sn	-0.276091480	0.643132740	0.529422650
Cl	1.395490300	0.681944610	2.257302650
Cl	-2.116165300	-0.836339720	0.812817110
Cl	-1.401215240	2.636555780	1.285539420
Cl	0.215977940	1.518774540	-1.655010460
