26

H 	2.572121192	0.195217632	-1.462180108
C 	4.185245589	-0.453049902	-0.238341864
C 	2.957792863	-0.589179909	-0.816487219
C 	1.973360053	-1.563061368	-0.402589196
O 	0.724999266	-1.245855005	-0.343669955
H 	4.516711546	-1.149528704	0.530402701
C 	6.204762400	0.851960504	0.367155149
H 	7.015232764	1.294586036	-0.220263257
H 	6.575630026	-0.070043525	0.826054129
H 	5.918553879	1.551237109	1.165445712
N 	5.079523660	0.530364618	-0.512408587
H 	4.770827433	1.266640596	-1.141152641
N 	2.298998607	-2.836390447	-0.055310836
C 	3.530735773	-3.515514244	-0.472858603
C 	1.293676290	-3.695817351	0.590265421
H 	4.062439052	-2.908871304	-1.206050690
H 	3.267770282	-4.478978309	-0.927752413
H 	4.187494012	-3.709764260	0.385675308
H 	1.796053218	-4.316498954	1.340381384
H 	0.810132362	-4.349047263	-0.148579094
H 	0.533389634	-3.076576210	1.063835545
Sn	-0.157584362	0.596283892	0.571464104
Cl	1.472839668	0.249468044	2.309284130
Cl	-2.110896800	-0.756441082	0.601231471
Cl	-1.139321674	2.529275244	1.623199091
Cl	0.427085067	1.755475149	-1.448162091
