35

H 	1.404123680	2.031897280	-0.788788520
C 	3.284786040	1.028833180	-0.655037910
C 	1.910840350	1.093428860	-0.577078360
C 	1.053876560	0.123281980	0.085828050
O 	0.077334240	0.536014150	0.821589910
H 	3.785713140	0.078986370	-0.486700090
H 	3.056869340	2.081832880	1.880874150
H 	4.858086110	1.936091190	1.388569640
H 	3.922417200	0.435965620	1.961789480
C 	3.907473440	1.463770160	1.609711430
N 	1.245354020	-1.215065010	0.002604100
C 	2.078333740	-1.859799890	-1.022076860
C 	0.447829890	-2.129123740	0.840704580
H 	2.324523580	-1.147738800	-1.809974550
H 	1.512404790	-2.691296040	-1.458762760
H 	3.002512410	-2.261821400	-0.586248500
H 	1.085911170	-2.965011710	1.148189970
H 	-0.407232880	-2.521489840	0.273950810
H 	0.078689970	-1.596506310	1.716344310
O 	7.555253960	2.412555930	-2.670660440
H 	7.765881340	1.485344440	-2.459868680
C 	6.262678330	2.691323580	-2.267803520
C 	5.793141510	3.994598900	-2.483814450
C 	4.493578370	4.325962230	-2.091763830
C 	3.656501770	3.382047970	-1.493285160
C 	4.121269260	2.070189050	-1.277929650
C 	5.435571310	1.737744400	-1.664979970
H 	6.450852800	4.725559090	-2.947737990
H 	4.132305370	5.340033340	-2.248777830
H 	5.809362670	0.727503260	-1.491645830
H 	2.658622400	3.671452140	-1.177503710
Al	-0.372032660	2.254487630	1.374197480
F 	-1.796007620	2.045207840	2.235272640
F 	-0.492469090	3.150087620	-0.058108380
F 	0.964951880	2.745854360	2.292624070
