12
GO, radical, R2=Br, R1=H
C	 0.07237900	 0.45849000	 0.14701600
C	 0.88136400	-0.76962700	 0.34543400
H	 0.32008500	-1.64937000	 0.00848400
C	-1.24453700	 0.48140500	-0.41210600
H	 0.49150900	 1.42171500	 0.44020400
O	-1.70763628	-0.60238060	-0.72730090
C	 1.35798400	-0.97156700	 1.79839200
H	 1.97578900	-1.87216200	 1.87186400
H	 0.50807500	-1.08370100	 2.47848500
H	 1.95613700	-0.12156000	 2.14194000
Br	 2.42960947	-0.65952855	-0.76763127
H	-1.81787046	 1.37262304	-0.56015713
