27

H 	2.429439520	0.822090380	0.133011870
C 	4.294151390	-0.216248870	0.241774940
C 	2.942506130	-0.129824340	0.207719750
C 	2.052476200	-1.278954450	0.279459430
O 	0.806121720	-1.222238610	0.180549610
H 	4.738101310	-1.208358950	0.321986310
C 	6.621399240	0.612713420	0.243635600
C 	7.573102870	1.631942530	0.207713190
C 	7.127220940	2.948247290	0.106906050
C 	5.769120580	3.273461340	0.041756690
C 	4.832491700	2.245254770	0.080820660
C 	5.236609160	0.892813260	0.185162980
H 	6.950865440	-0.421670780	0.322916580
H 	8.637966570	1.421066190	0.254932940
F 	8.048990900	3.957650970	0.072566320
H 	5.466508740	4.314220680	-0.038204290
H 	3.776474240	2.496477310	0.030669140
O 	2.652178800	-2.469998390	0.480444880
C 	1.765557350	-3.634980360	0.550361030
H 	1.203472410	-3.733578530	-0.382270470
H 	1.070987310	-3.525304400	1.387960390
H 	2.434625250	-4.483062520	0.701275040
Sn	-0.737446120	0.466855140	-0.516729160
Cl	0.660089490	0.511747140	-2.442763380
Cl	0.071113640	1.636773820	1.395625790
Cl	-2.348496490	2.082182900	-1.234858770
Cl	-2.200375480	-1.362768450	-0.187086340
