32

H 	1.615649590	2.354586670	-0.303840920
C 	3.400674820	1.177976230	-0.439165940
C 	2.057800350	1.366482920	-0.266312790
C 	1.127498570	0.296687430	0.003984330
O 	-0.125545760	0.427129850	0.116233520
H 	3.773188980	0.157559090	-0.509069070
H 	4.831682360	1.524010620	2.113904490
H 	4.168279900	-0.201240710	1.858420790
H 	3.029267810	1.165817000	2.412079120
C 	3.985178020	0.856560700	2.007020100
O 	1.663648700	-0.927296640	0.156430640
C 	0.733435290	-2.028359810	0.421785290
H 	0.008893790	-2.110434420	-0.392790560
H 	0.209980120	-1.853897750	1.365829380
H 	1.366450760	-2.914718190	0.479259300
C 	4.096717270	2.345876090	-2.486917510
C 	4.341373150	2.261051100	-0.945366030
C 	5.817767770	1.865924400	-0.706796240
C 	4.053806020	3.638127970	-0.305898400
H 	4.179001430	3.598964740	0.782072980
H 	4.775287760	3.089471130	-2.923152430
H 	3.064336870	2.640760920	-2.701291770
H 	4.288004730	1.381166400	-2.972530020
H 	6.479013850	2.574073760	-1.219902820
H 	6.028108830	0.862301060	-1.098001260
H 	6.072525870	1.879184840	0.357637600
H 	4.750422130	4.384758460	-0.705016630
H 	3.037758560	3.986023650	-0.520116400
B 	-0.980790740	1.871096630	-0.086869080
F 	-0.648174380	2.288668400	-1.366858340
F 	-0.503056660	2.708070510	0.911146910
F 	-2.277866950	1.460874630	0.073126990
