30

H 	2.226426563	-0.284816793	0.119546775
C 	0.000000000	0.000000000	0.000000000
C 	1.268526654	-0.787682592	0.000000000
C 	1.334603425	-2.213674462	-0.000000000
O 	2.406784731	-2.887125808	0.089893427
H 	-0.796900162	-0.582456347	-0.475036912
H 	-0.786165812	1.922889857	-0.646017116
H 	0.372340993	1.194635618	-1.784933542
C 	0.145685617	1.352534625	-0.724438616
H 	0.953354301	1.953414567	-0.293303349
O 	0.163256168	-2.862461206	-0.115523325
C 	0.220145711	-4.325729535	-0.098975489
H 	0.658591466	-4.668346260	0.842211866
H 	0.821712055	-4.684220046	-0.938504710
H 	-0.818321776	-4.643613992	-0.191477759
C 	-1.014848355	0.330860479	4.219097003
C 	0.083955615	1.030729721	3.707957300
C 	0.413062795	0.928863674	2.354717744
C 	-0.362699856	0.133717179	1.491120157
C 	-1.450249572	-0.582424384	2.016284196
C 	-1.781869782	-0.475671962	3.368884246
H 	0.689468393	1.651308632	4.364522817
H 	1.275565137	1.468538538	1.971812044
H 	-2.041626528	-1.215694457	1.358454389
H 	-2.637967321	-1.021141127	3.760236612
H 	-1.268658156	0.407971565	5.273830880
Al	4.229369158	-2.508832885	0.331266574
F 	4.584151442	-3.315575465	1.757930069
F 	4.280788633	-0.821177973	0.453546027
F 	4.923859603	-3.120628644	-1.067035702
