30

H 	1.505834435	2.308216498	0.675424842
C 	3.553945957	1.396598485	0.512393944
C 	2.063523648	1.408394781	0.422361016
C 	1.278258400	0.348731265	-0.123798918
O 	0.019810070	0.390848993	-0.284186558
H 	3.912278025	0.363472904	0.577316941
H 	5.173236927	2.214340219	1.713266714
H 	3.741514208	1.736445927	2.657411821
C 	4.078062320	2.196158599	1.721274079
H 	3.717362807	3.230033508	1.705101242
O 	1.944689609	-0.764551867	-0.474219218
C 	1.149217210	-1.850204496	-1.051494270
H 	0.652685354	-1.501791424	-1.961174975
H 	0.401442554	-2.188286177	-0.329178088
H 	1.872087895	-2.636017568	-1.270532415
C 	4.837976456	2.943080796	-3.347635006
C 	4.223534378	3.795176804	-2.423057134
C 	3.810776045	3.304159292	-1.182703199
C 	4.019782459	1.954054510	-0.845954291
C 	4.617071064	1.100889146	-1.787641911
C 	5.034444286	1.594158933	-3.025938907
H 	4.059349397	4.841530546	-2.670098278
H 	3.324584960	3.973341997	-0.477303483
H 	4.762574616	0.051135816	-1.541990925
H 	5.512671357	0.927218233	-3.740141435
H 	5.156202228	3.325346683	-4.314813498
Al	-1.336071481	1.665933193	-0.041439725
F 	-1.969844535	1.823878405	-1.585932462
F 	-0.510795772	3.034598868	0.516636975
F 	-2.325359528	0.942556672	1.103067092
