27

H 	0.283857708	-2.117121689	0.001579895
C 	0.000000000	0.000000000	0.000000000
C 	-0.415222131	-1.289570830	-0.000000000
C 	-1.811163783	-1.691900697	-0.000000000
O 	-2.200230366	-2.878407091	0.015318414
H 	-0.760249480	0.780518370	0.003942225
C 	1.624913268	1.855855512	0.016583529
C 	2.922661488	2.363209138	0.016637487
C 	3.982294273	1.459761242	-0.002642242
C 	3.788224084	0.076705539	-0.022862605
C 	2.487328938	-0.413359468	-0.021265841
C 	1.377974527	0.464673541	-0.001526659
H 	0.782611581	2.544279035	0.031046995
H 	3.120409050	3.431278199	0.031302768
F 	5.258210510	1.941969011	-0.003165183
H 	4.647253364	-0.588220594	-0.038822894
H 	2.332604163	-1.488351848	-0.037117178
O 	-2.712675407	-0.691564370	-0.020298024
C 	-4.119796756	-1.095970315	-0.019018887
H 	-4.340886128	-1.674378330	0.881860012
H 	-4.335069768	-1.700133834	-0.904240221
H 	-4.677221962	-0.159119426	-0.034417660
Ti	-1.361208362	-4.904674923	0.105863990
Cl	-0.494960535	-6.966248474	0.206675691
Cl	-0.457076133	-4.186720011	2.040031424
Cl	-3.510520476	-5.516963712	0.067923555
Cl	-0.357152506	-4.329928779	-1.826666378
