27

H 	2.454537051	0.843794661	-0.066482512
C 	4.297244323	-0.183086996	0.269264289
C 	2.958445402	-0.104326222	0.077387946
C 	2.075117993	-1.257170695	0.042678776
O 	0.842833692	-1.192394232	-0.148852672
H 	4.736158814	-1.171543324	0.401596815
C 	6.603965629	0.657488183	0.508613430
C 	7.547795093	1.681180132	0.561517920
C 	7.103788448	2.993447867	0.419310546
C 	5.757545823	3.313040346	0.228505361
C 	4.828687422	2.280066789	0.176715938
C 	5.231098820	0.930696850	0.315513072
H 	6.929445847	-0.374853356	0.617892184
H 	8.604908397	1.478957740	0.708855134
F 	8.016382690	4.005948749	0.469316177
H 	5.459623414	4.352577590	0.124019217
H 	3.780862480	2.524873824	0.028621230
O 	2.660953276	-2.454368064	0.235871596
C 	1.771781084	-3.616954779	0.199798920
H 	1.282010157	-3.681893106	-0.775355727
H 	1.015543347	-3.532656466	0.984637194
H 	2.426411665	-4.471728827	0.371466331
Ti	-0.699981214	0.311195525	-0.569397273
Cl	-2.263851430	1.852050265	-1.006101314
Cl	0.558040127	0.747324240	-2.386288039
Cl	-2.058633187	-1.463550582	-0.584252139
Cl	-0.067154583	1.183120348	1.408584647
