30

H 	1.982061614	0.967379016	0.010022136
C 	0.000000000	0.000000000	0.000000000
C 	1.482872920	0.000000000	0.000000000
C 	2.336484261	-1.144404663	0.000000000
O 	3.601940722	-1.021146415	0.073146740
H 	-0.368142064	-1.030862594	-0.067289865
H 	-1.591845474	0.771877875	-1.295851723
H 	-0.125564970	0.293306898	-2.166249929
C 	-0.498623777	0.771378717	-1.254044175
H 	-0.148372326	1.808218254	-1.250267899
C 	1.774042127	-2.546588134	-0.079633996
H 	1.250691987	-2.789251043	0.854856965
H 	2.591459630	-3.255841289	-0.224660407
H 	1.047560252	-2.642980082	-0.894559711
C 	-0.005676373	-0.281305510	2.531217370
C 	-0.582121109	0.568380534	1.375232331
C 	-2.117694733	0.415787343	1.360179084
C 	-0.206123694	2.048549149	1.592045771
H 	-0.606350310	2.691110391	0.800127810
H 	-0.443426803	0.034284067	3.485428935
H 	1.080961846	-0.165974270	2.609999223
H 	-0.238624183	-1.345437340	2.394581387
H 	-2.522958848	0.695804531	2.340232021
H 	-2.414761828	-0.621567303	1.158992523
H 	-2.592084811	1.061396889	0.613768518
H 	-0.631176858	2.395936968	2.541451067
H 	0.877746262	2.191024869	1.650214864
Zn	4.707911999	0.658269776	0.588758709
Cl	3.689636683	1.497642467	2.315573074
Cl	6.338345679	0.901993164	-0.780444638
