29

H 	1.598270247	2.031817496	-0.952101961
C 	3.474107403	1.205225488	-0.332716339
C 	2.109028685	1.196972259	-0.493636049
C 	1.232631143	0.155336701	0.011345555
O 	-0.019086146	0.316871281	0.113558633
H 	3.955702193	0.321136548	0.082598940
H 	3.000683104	2.910600362	1.765186312
H 	4.727045401	2.218453277	1.942125952
H 	3.243929515	1.199113459	2.441061021
C 	3.654286631	2.063000994	1.930030570
N 	1.742525675	-1.041601036	0.420564057
H 	1.077885417	-1.751364975	0.707764015
H 	2.668868536	-1.340232694	0.147746157
C 	5.797386513	1.767597534	-0.985165285
C 	6.763841782	2.584840577	-1.565378024
C 	6.391311074	3.814712092	-2.122702363
C 	5.053357850	4.217129516	-2.090245463
C 	4.107964429	3.382103979	-1.507016609
C 	4.431980272	2.133009703	-0.943886640
H 	6.087856760	0.813507294	-0.549108298
H 	7.803133578	2.267412141	-1.584019001
H 	7.137136608	4.462068441	-2.577045192
H 	4.730067796	5.167236124	-2.506518593
F 	2.813534195	3.818847139	-1.478511619
Ti	-1.430601991	1.925243220	0.081984020
Cl	-2.859131203	3.662763105	0.065915083
Cl	-0.959204171	2.044806277	-2.121845097
Cl	-2.909167251	0.389773437	0.760399213
Cl	-0.038997987	2.873315772	1.604792434
