28

H 	0.306056349	-3.686844463	0.387188129
C 	-1.710210737	-0.203223503	1.478019546
C 	0.477256423	-1.619134881	0.477856624
C 	2.835752053	-0.543457801	-0.219498627
O 	4.519309117	-2.103784567	-1.232627218
H 	-1.305069245	1.814734804	1.315498661
H 	-3.459604357	0.217548921	5.187508998
H 	-0.154814572	-0.193404576	5.302278170
C 	-1.878930702	-0.817711868	4.357300917
H 	-2.141527434	-2.833816464	4.718076372
C 	-3.729060682	-0.059018838	-2.869807679
C 	-4.249563382	-0.672244629	-0.063155013
C 	-6.276201576	1.176404522	0.913971427
C 	-5.237505777	-3.398948285	0.172549094
H 	-5.700762776	-3.901252614	2.122016137
H 	-5.480624226	-0.171578333	-3.963452602
H 	-2.391824044	-1.396448138	-3.712448600
H 	-2.950122514	1.840556467	-3.103235202
H 	-7.966005979	1.042795382	-0.272777207
H 	-5.615890581	3.134702417	0.838027005
H 	-6.864284319	0.765560079	2.850682700
H 	-6.970304447	-3.605420888	-0.938063097
H 	-3.897387126	-4.798794517	-0.551022434
H 	3.854811457	-3.822283657	-1.432003701
Al	3.955065315	3.226408793	0.265860756
F 	3.437473918	3.693900483	3.384415475
F 	1.852372959	4.767253473	-1.589826084
F 	6.984955448	3.414241242	-0.656620099
