67

C 	0.000000000	0.000000000	0.000000000
C 	1.500298321	0.000000000	0.000000000
C 	2.323029942	1.178542890	0.000000000
O 	3.578530715	1.076603685	0.026397535
H 	4.154951908	1.030585754	5.711127407
H 	-0.349853170	0.795633957	0.673904338
H 	2.025278547	-0.953018321	-0.042944316
H 	6.371129025	-3.333450808	-1.613312940
H 	5.967775156	-1.602880371	-1.617125960
H 	3.936636245	1.799630526	4.128736041
H 	7.098836316	-2.236082714	-0.412656449
C 	-0.577761301	-1.344745951	0.491315434
H 	-0.246281706	-2.164492391	-0.153230533
H 	5.370375195	0.805668769	4.440919996
H 	1.439744604	0.686473889	2.627562151
H 	-1.672593483	-1.313371390	0.477805539
H 	-0.243655508	-1.556308837	1.511933467
N 	4.798732400	-1.549210846	0.837957049
C 	4.396997451	-1.682490536	2.159177596
N 	3.855445967	-0.524046969	2.691184700
C 	5.041586796	-2.742260207	0.010160606
H 	4.479412398	-0.709965471	0.347684092
C 	3.575667047	-0.364981066	4.120633742
H 	3.884091655	0.309344503	2.112002896
H 	5.357677427	-3.519595607	0.712898813
C 	4.296085642	0.894738767	4.634856286
C 	6.186522531	-2.463330970	-0.972997085
H 	3.068881658	-4.167891413	1.170101430
H 	4.013322603	-1.245739561	4.603988378
C 	3.736989279	-3.214534837	-0.641898081
C 	3.398191960	-2.912760170	-1.969368252
C 	2.176954034	-3.333136809	-2.510762665
C 	1.271225910	-4.056534627	-1.729151773
C 	1.596825026	-4.357557349	-0.400756189
C 	2.817517492	-3.941769710	0.136409249
H 	4.089619117	-2.354181493	-2.594698321
H 	1.938199616	-3.100567643	-3.546837344
H 	0.323777767	-4.385350496	-2.150783804
H 	0.899969537	-4.921439588	0.216219714
C 	2.031352669	-0.411171376	4.421827099
C 	1.796838222	-0.315128686	5.946533368
H 	0.737778813	-0.484675653	6.177092204
H 	2.067939869	0.668918288	6.344212474
H 	2.381283487	-1.074355987	6.481984916
C 	1.472010473	-1.762290874	3.922580634
H 	1.969806272	-2.601675055	4.419878380
H 	0.395445234	-1.825263131	4.126447796
H 	1.627809277	-1.880758685	2.846365337
C 	1.287077922	0.739046131	3.710964865
H 	1.621804621	1.722817060	4.060450319
H 	0.208591748	0.668174426	3.899866859
O 	4.512134270	-2.732352643	2.807294974
C 	1.680029126	2.556600348	-0.005543882
H 	2.463059513	3.317794858	0.007612519
H 	1.032932236	2.684813455	0.872216456
H 	1.048749173	2.687448327	-0.892476287
C 	-1.488856533	0.989791803	-3.965328324
C 	-0.565349848	-0.048769108	-3.797836080
C 	-0.081476691	-0.361769444	-2.525084911
C 	-0.517907681	0.357901519	-1.400315082
C 	-1.438233058	1.400591569	-1.576686011
C 	-1.926021754	1.712801240	-2.849981791
H 	-0.219475190	-0.614429551	-4.660683531
H 	0.634565838	-1.169779875	-2.402483299
H 	-1.777888736	1.968318448	-0.711885622
H 	-2.645268612	2.520434221	-2.970290087
H 	-1.864302021	1.234437855	-4.956507210
