67

C 	-1.981990210	1.251551600	0.624748920
C 	-0.736158150	0.457104660	0.888924930
C 	-0.660267890	-0.687181000	1.756904490
O 	0.427826970	-1.307151820	1.901360310
H 	0.208376550	-4.665511570	-2.738292830
H 	-2.829310660	0.555141890	0.536573710
H 	0.198842730	0.778030300	0.431432800
H 	5.375980910	1.034753360	1.545506190
H 	4.082083100	0.134596050	2.368701110
H 	-0.210232700	-4.200295400	-1.078972640
H 	5.181750500	-0.714683520	1.270785310
C 	-1.882334790	2.067522100	-0.684470710
H 	-1.048828800	2.775471900	-0.631613970
H 	1.485999470	-4.458816050	-1.526561340
H 	-1.452657370	-1.331609310	-0.921573430
H 	-2.806734890	2.632848070	-0.847624590
H 	-1.717486520	1.405820850	-1.540598550
N 	2.752477500	-0.619667480	0.111648620
C 	2.341502210	-1.067598030	-1.136192280
N 	1.193945180	-1.844318070	-1.092027770
C 	3.715613400	0.487608870	0.237243910
H 	2.092484500	-0.746165110	0.883450370
C 	0.688952050	-2.580020670	-2.255928110
H 	0.832537550	-2.087660770	-0.174324840
H 	4.304709290	0.458815660	-0.685823260
C 	0.527154810	-4.064801490	-1.880835960
C 	4.644911170	0.225820860	1.431006410
H 	2.456093830	1.697977410	-1.813737640
H 	1.469987850	-2.489688300	-3.019672610
C 	2.982481840	1.836151240	0.272504380
C 	2.867569090	2.617260180	1.432059820
C 	2.166688920	3.831187040	1.413733070
C 	1.564020920	4.279749690	0.234845170
C 	1.668521750	3.504880270	-0.928244420
C 	2.371245470	2.297673140	-0.909708070
H 	3.331440460	2.290455550	2.359113900
H 	2.095730570	4.426011080	2.323042240
H 	1.019735150	5.221868100	0.220631270
H 	1.208340350	3.846736750	-1.853715310
C 	-0.603809110	-1.908121360	-2.854381000
C 	-1.059783270	-2.685867950	-4.111440090
H 	-1.873753700	-2.147414980	-4.613307980
H 	-1.429141850	-3.687511730	-3.864713110
H 	-0.235487250	-2.790993280	-4.828965550
C 	-0.257881980	-0.459746990	-3.270109820
H 	0.547932670	-0.446013560	-4.012443000
H 	-1.138657650	0.031714600	-3.703760730
H 	0.077706100	0.128642520	-2.410805470
C 	-1.752154240	-1.881127310	-1.821763950
H 	-2.059543420	-2.890798210	-1.523846510
H 	-2.631101120	-1.376875330	-2.243482940
O 	2.934663540	-0.799237180	-2.191673020
C 	-1.907147480	-1.169313910	2.483925740
H 	-1.647914340	-2.020658340	3.117486060
H 	-2.676559620	-1.475824170	1.761521410
H 	-2.339506250	-0.366946220	3.094128980
C 	-2.864035930	3.887587250	3.973691910
C 	-1.577382340	3.849547700	3.423633860
C 	-1.290542550	2.992274830	2.357881660
C 	-2.290536900	2.163364030	1.822636500
C 	-3.576015380	2.200238220	2.382304370
C 	-3.864727430	3.060792200	3.447862790
H 	-0.793073020	4.487828460	3.826659660
H 	-0.289214940	2.974826960	1.937186310
H 	-4.356686260	1.557203900	1.977701160
H 	-4.869005910	3.084691480	3.866502300
H 	-3.086461660	4.554901840	4.803729350
