29

H 	1.770867920	2.137792840	1.157199790
C 	3.538713350	1.117616700	0.248971300
C 	2.077012900	1.341821990	0.483590600
C 	1.037640840	0.603422980	-0.158089170
O 	-0.201358940	0.858927520	0.040676210
H 	3.717152730	0.039328640	0.124881700
H 	5.454417540	1.429238290	1.245070590
H 	4.103246130	1.118631800	2.363514090
C 	4.393026090	1.623372080	1.434237620
H 	4.262189570	2.702829250	1.572153280
C 	1.347799530	-0.531112730	-1.103047830
H 	1.950432720	-1.298688850	-0.599996170
H 	1.934677450	-0.164739500	-1.955140330
H 	0.416257620	-0.974786360	-1.459828760
C 	3.605316990	3.111859230	-1.361387730
C 	4.041079580	3.734105510	-2.535246290
C 	4.830779190	3.005817470	-3.422754310
C 	5.186710120	1.679473700	-3.181876670
C 	4.737565450	1.071631070	-2.004953980
C 	3.958123730	1.779563390	-1.076556490
H 	2.987696520	3.673665160	-0.664401300
H 	3.776793330	4.763479860	-2.761596420
F 	5.273291990	3.610097830	-4.570632920
H 	5.804362670	1.144795190	-3.898792120
H 	5.011882030	0.037782370	-1.802629150
B 	-0.808021220	2.074494030	1.028147560
F 	-0.368872220	1.733696410	2.301229790
F 	-2.157459450	1.976322490	0.833433080
F 	-0.231002880	3.244959450	0.540850290
