29

H 	1.533793061	2.330997253	-0.771334556
C 	3.309868670	1.137859728	-0.751427947
C 	1.953992495	1.338878660	-0.656847802
C 	1.009829156	0.329853309	-0.253763264
O 	-0.198223639	0.551030333	0.018586350
H 	3.680659499	0.115933552	-0.726296249
H 	3.315422061	2.076092610	1.836858275
H 	4.964776825	1.262562084	1.502689234
H 	3.463335531	0.218861875	1.875507636
C 	3.890686425	1.182886734	1.623273878
O 	1.499536051	-0.928080060	-0.165663414
C 	0.559383160	-1.958628601	0.268695151
H 	-0.278548601	-2.022564173	-0.430669096
H 	0.183572818	-1.727812032	1.269502974
H 	1.139748231	-2.881933230	0.271403153
C 	6.157236343	4.067717711	-2.035346318
C 	6.460423877	2.703151211	-2.102951392
C 	5.526841100	1.759989137	-1.671733005
C 	4.268041573	2.162082846	-1.180565417
C 	3.978151859	3.541139934	-1.109983027
C 	4.915238072	4.481275575	-1.534205106
H 	7.425305611	2.375937415	-2.483789843
H 	5.765339247	0.698755888	-1.716917836
H 	3.030129836	3.876957081	-0.697632511
H 	4.681667408	5.541426100	-1.467808227
H 	6.885964208	4.805639981	-2.362931083
Zn	-1.094996048	2.333026483	0.603154614
Cl	-3.176783276	2.216824425	0.106194804
Cl	0.451026557	3.556563562	1.518299786
