31

H 	1.807329920	2.040777520	0.632580970
C 	3.719193240	0.938574920	0.642544730
C 	2.226565520	1.049234440	0.478266020
C 	1.328931070	0.098330810	-0.129341380
O 	0.264335310	0.466562720	-0.762027740
H 	4.089489130	-0.038443860	0.296341580
H 	5.269760800	1.157246820	2.131414350
H 	3.766695070	0.444694840	2.775734980
C 	4.175372090	1.193351060	2.087240260
H 	3.841644600	2.184279380	2.413301350
N 	1.562818220	-1.245039690	-0.103463960
C 	0.704917330	-2.130646670	-0.910617030
C 	2.389611400	-1.913325360	0.909803510
H 	0.446018660	-1.637283010	-1.848191980
H 	-0.223692950	-2.369382240	-0.374125330
H 	1.257391570	-3.055041600	-1.105637290
H 	3.256010300	-2.403105160	0.447740170
H 	1.782825360	-2.678963110	1.410323080
H 	2.726233520	-1.203458070	1.663269670
O 	4.334565560	1.969182980	-0.161769010
C 	4.281455480	1.720486770	-1.597558210
C 	5.060300710	2.831142460	-2.286665960
H 	3.239137260	1.713796900	-1.937943880
H 	4.732964270	0.733335690	-1.799414400
H 	4.604242250	3.804317680	-2.073869950
H 	5.044108620	2.673331500	-3.372293280
H 	6.104128290	2.847930680	-1.950567040
B 	-0.083224860	1.971406960	-1.254513920
F 	1.017235020	2.380657860	-2.020147010
F 	-0.247893490	2.741954400	-0.102352660
F 	-1.237078580	1.803177600	-1.986813810
