33

H 	1.685217986	2.217116304	-0.712822961
C 	3.518704910	1.121288723	-0.690324539
C 	2.150748679	1.244556681	-0.601365329
C 	1.252621330	0.163871603	-0.309906144
O 	0.025135090	0.381915169	-0.103336627
H 	3.956206681	0.125662382	-0.654682878
H 	3.574538912	2.213619646	1.848873293
H 	5.142188489	1.224543987	1.616393414
H 	3.546238383	0.368349871	2.074125449
C 	4.064786961	1.255518080	1.729226751
C 	0.615062854	-2.289679084	0.045526679
C 	1.733045693	-1.276952501	-0.229007846
H 	-0.140110115	-2.263970989	-0.746168500
H 	0.107404852	-2.069640524	0.989559564
H 	1.031270105	-3.301527708	0.098365896
H 	2.256368511	-1.517287517	-1.165576771
H 	2.500426185	-1.327757899	0.558938935
C 	4.041777647	3.535705388	-1.203016696
C 	4.941231679	4.515038755	-1.614092728
C 	6.245628097	4.134724255	-1.932245090
C 	6.679215163	2.813215354	-1.847312475
C 	5.768021150	1.846502506	-1.427165468
C 	4.435635537	2.182881563	-1.104394698
H 	3.027028245	3.829376214	-0.951141401
H 	4.648635398	5.558262271	-1.692914480
F 	7.129089215	5.092321874	-2.336477348
H 	7.704203999	2.561087287	-2.103819128
H 	6.088494105	0.809283121	-1.351562451
Ti	-1.308639705	2.022552598	0.203900192
Cl	-2.620383965	3.820077014	0.528755169
Cl	0.177168157	2.605042271	1.822363183
Cl	-0.882629232	2.488914351	-1.967139868
Cl	-2.845336786	0.471328304	0.668955230
