25

C 	0.209814164	0.490752927	0.260106161
C 	1.393794815	-0.487797080	0.515592549
H 	1.484372238	-1.115786479	-0.380150284
C 	-1.077714551	-0.215422089	-0.079465467
H 	0.443485559	1.156889352	-0.575613461
H 	0.005282173	1.091096605	1.153349778
H 	0.944161111	-0.838309379	2.636670204
C 	1.056827441	-1.407226300	1.706140678
H 	1.829722894	-2.164788586	1.859684873
H 	0.113972955	-1.937280037	1.530960976
O 	-2.080558707	-0.291374954	0.557108998
Cl	-0.980530326	-1.061134677	-1.747662214
C 	3.070506333	1.036924933	-0.661869610
C 	2.764148145	0.273162264	0.649075340
C 	3.895000564	-0.762888319	0.863871831
C 	2.767307210	1.271131488	1.829287775
H 	2.561985454	0.772909681	2.783328258
H 	4.079887614	1.463415940	-0.621609822
H 	2.377137624	1.867895710	-0.833060322
H 	3.021349729	0.367369406	-1.529794878
H 	4.870734765	-0.263710118	0.830680409
H 	3.882265997	-1.530090958	0.079206094
H 	3.814144940	-1.264339075	1.833449036
H 	3.750556213	1.750180942	1.911758583
H 	2.026610687	2.067755293	1.692940155
