64
GO, radical, R2=Ph, R1=H, Rch=O
C	-0.17814755	 0.21074831	-0.18939979
C	 1.16552694	-0.37434067	-0.41444645
C	 1.76291402	-1.29224266	 0.47849245
O	 2.90210637	-1.75241598	 0.33459369
H	 2.93349876	-4.76387855	-3.81133235
H	-0.65148864	-0.28574160	 0.66921587
H	 1.71903542	-0.07683742	-1.29829812
H	 7.35583622	 0.32412150	 0.86967771
H	 6.25868890	-0.92726719	 1.47169867
H	 2.49589283	-4.56529036	-2.10935110
H	 7.14111029	-1.19068830	-0.03680837
C	-0.07848507	 1.71808472	 0.13583835
H	 0.41091237	 2.25660157	-0.67402992
H	 4.12493767	-4.16186206	-2.65801557
H	-1.08009420	 2.12326578	 0.27762053
H	 0.49437644	 1.85757139	 1.05155408
N	 4.51899139	-0.81942949	-0.65446155
C	 4.12516599	-1.04950486	-1.96195694
N	 2.98384807	-1.84784206	-2.03227229
C	 5.48909265	 0.19614344	-0.25163187
H	 3.97174395	-1.24058498	 0.08463365
C	 2.66080614	-2.66478826	-3.20576278
H	 2.71291700	-2.26870256	-1.15380120
H	 5.90768174	 0.57658777	-1.18578800
C	 3.06701952	-4.12582904	-2.93471238
C	 6.62863241	-0.43574851	 0.56606785
H	 4.96308339	 2.68887188	-1.22131897
H	 3.29529571	-2.27905186	-4.00847841
C	 4.80535248	 1.36434898	 0.46901821
C	 4.33577145	 1.25577477	 1.78655711
C	 3.69194744	 2.32263431	 2.41178939
C	 3.50742716	 3.52818029	 1.73425439
C	 3.97080248	 3.65231094	 0.42520043
C	 4.61062213	 2.58009212	-0.19801292
H	 4.46679230	 0.33015633	 2.34140552
H	 3.33728679	 2.21319729	 3.43505747
H	 3.01133394	 4.36320999	 2.22457109
H	 3.83832809	 4.58793760	-0.11432927
C	 1.17047823	-2.45052063	-3.67181188
C	 0.87968179	-3.32303498	-4.91173072
H	-0.09379689	-3.05837645	-5.33773890
H	 0.84817115	-4.38953928	-4.67209582
H	 1.63206842	-3.17359242	-5.69396988
C	 0.98663872	-0.97016433	-4.06629128
H	 1.65758074	-0.69189543	-4.88538987
H	-0.04155561	-0.78737322	-4.39670374
H	 1.19731265	-0.30412408	-3.22617889
C	 0.15297052	-2.80064853	-2.56526798
H	 0.23609864	-3.84134545	-2.23595399
H	-0.86858176	-2.66128136	-2.93552085
H	 0.26861810	-2.15446014	-1.69110522
C	-2.68506936	-0.34072625	-3.69007724
C	-2.60620979	-1.34738842	-2.71966983
C	-1.79743181	-1.16947283	-1.59028844
C	-1.06751340	 0.01510494	-1.43131446
C	-1.14637296	 1.02176711	-2.40172187
C	-1.95515094	 0.84385152	-3.53110326
H	-3.16476287	-2.25385900	-2.84132098
H	-1.73708636	-1.93979764	-0.84770676
H	-0.58781989	 1.92823769	-2.28007073
H	-2.01549640	 1.61417633	-4.27368495
H	-3.30396789	-0.47687201	-4.55431008
H	 1.16788084	-1.57697257	 1.32096761
O	 4.79598826	-0.51451197	-3.10593250
