28

H 	1.900812339	0.914885129	0.194802572
C 	0.000000000	0.000000000	0.000000000
C 	1.346225103	0.000000000	0.000000000
C 	2.198258291	-1.215350650	0.000000000
O 	3.098284010	-1.319187951	0.874581459
H 	-0.536263001	-0.929721311	-0.182393684
C 	-0.362834380	2.294492363	0.994281929
C 	-1.188616910	3.388477699	1.243872344
C 	-2.513574997	3.391206207	0.787095372
C 	-3.015210245	2.290722083	0.084584999
C 	-2.171428588	1.212382446	-0.148335111
C 	-0.831397971	1.172779288	0.274089175
H 	0.647857671	2.278058354	1.393036032
H 	-0.806076662	4.232909688	1.811284833
H 	-3.160716947	4.242252653	0.984826895
H 	-4.038514024	2.258608877	-0.279148398
F 	-2.670558643	0.136322430	-0.844172226
N 	1.992863718	-2.213190619	-0.907102538
C 	2.757829888	-3.461386800	-0.787615182
C 	1.188552851	-2.079702378	-2.127371140
H 	3.178197676	-3.529958951	0.215508943
H 	3.575122588	-3.486645880	-1.521759107
H 	2.089113797	-4.309587544	-0.975785612
H 	0.302362035	-2.726892799	-2.084777711
H 	1.795189828	-2.380914203	-2.991095669
H 	0.870214569	-1.046995427	-2.261497578
I 	3.027670206	0.339301210	2.995980589
I 	2.928380809	2.059902542	5.198565774
