16
GO, Rcat=ZnCl2
H	 0.83345051	-1.35209109	 1.20167740
C	-0.83092072	 0.03538951	 0.93442801
C	 0.35139657	-0.78131674	 0.40158875
C	 1.39689343	 0.07225735	-0.26739819
O	 2.40703452	-0.34587328	-0.75774611
H	-1.19392452	 0.69150371	 0.13740680
H	 0.00939092	-1.50634328	-0.34451216
H	-0.05768346	 0.24518214	 2.94899716
C	-0.44138171	 0.87842746	 2.14736270
H	 0.32560687	 1.60312788	 1.87585802
H	-1.31355949	 1.41759590	 2.51749654
H	-1.62209815	-0.63358328	 1.20166141
H	 1.16279025	 1.11629180	-0.25802988
Sn	 3.62898812	-1.04016615	-1.71419100
Cl	 3.95998856	-0.67181682	-4.04370676
Cl	 5.57055229	-2.31763730	-1.19435336
