18
C4H8Cl4OSn optimized with ADF in AMS.
H        0.91232493229234      -1.53654462498859       1.80003253919544
C       -1.08501981462455      -0.81393219839033       1.25587190180474
C        0.37482523426075      -1.13321740644834       0.92756312408799
C        1.22028069541340      -0.00997947948393       0.36881416600515
O        0.82633586234249       1.08953057964062       0.04664578656821
H       -1.52954374522251      -0.28036732004826       0.40827529628667
H        0.44378478348788      -1.93718582722256       0.17559271190103
H       -0.87866776556843      -0.52243093727044       3.40980784175182
C       -1.28039341638688       0.00399630268871       2.53581515990051
H       -0.78750037398673       0.97802863903732       2.47094406015691
H       -2.34484490697363       0.18284872855416       2.72062357614464
H       -1.62952864067669      -1.76162069363459       1.34735782940500
H        2.29907099639045      -0.28059022898312       0.24002590793203
Sn       2.01309011750726       5.99385574778173      -2.13343626436739
Cl       0.52328059326444       7.53339046514865      -1.24037012156449
Cl       0.85256339408029       4.14187518275031      -2.89392359671789
Cl       3.14600925326648       6.97410855462087      -3.90824503290465
Cl       3.54773870113365       5.37667028624775      -0.50924877558570
