25

H 	0.641928509	-2.036470415	-0.104305797
C 	0.000000000	0.000000000	0.000000000
C 	-0.200175280	-1.357839576	-0.000000000
C 	-1.458412702	-2.026725393	-0.000000000
O 	-1.653989232	-3.232651532	-0.143208144
H 	-0.858360433	0.642459768	0.180484496
H 	0.061264034	-0.397259895	-2.795780398
H 	-0.046706882	1.449965915	-2.508385197
H 	-1.576700823	0.383516739	-2.351302084
C 	-0.502286533	0.467841904	-2.467064367
Br	-3.100384563	-0.896209229	0.224921250
C 	3.782092230	1.988643210	-0.003123347
C 	2.617084639	2.672250712	0.364829417
C 	1.389645551	2.011552790	0.350614004
C 	1.305749191	0.649875543	-0.013793011
C 	2.489001669	-0.025984121	-0.387027344
C 	3.711644452	0.640366198	-0.382102705
H 	2.666811391	3.718901820	0.655869470
H 	0.481568799	2.542669955	0.629567865
H 	2.445045689	-1.062880441	-0.709323481
H 	4.614183693	0.112048401	-0.680265539
H 	4.739791527	2.503989688	-0.001626980
Zn	-0.455745693	-4.688363001	-1.214926146
Cl	-1.089206311	-6.591888003	-0.502827377
Cl	0.810932407	-3.485779555	-2.485521238
