31

H 	1.556461040	2.018548570	-0.765983210
C 	3.453839350	1.024233850	-0.669811250
C 	2.074463790	1.072835720	-0.630182480
C 	1.201821510	-0.042923950	-0.327125170
O 	-0.033888020	0.123685070	-0.192648200
H 	3.899205360	0.031327370	-0.617544780
H 	3.517976660	2.185403970	1.771277800
H 	5.071481620	1.178304570	1.594528440
H 	3.470704420	0.353658290	2.077847770
C 	3.989647730	1.215276980	1.671103930
C 	0.729107740	-2.511492440	0.214070160
C 	1.775450230	-1.453462850	-0.158886000
H 	-0.044998550	-2.586606560	-0.556463500
H 	0.231609010	-2.256228760	1.155650170
H 	1.207630000	-3.491179300	0.325916630
H 	2.286109330	-1.726192200	-1.094744020
H 	2.563167690	-1.408422680	0.608956330
O 	6.379228200	0.773188440	-0.900853990
H 	5.734455150	0.093310760	-0.640213760
C 	5.730802220	1.952937810	-1.204431080
C 	6.557858230	3.009642780	-1.608880300
C 	6.005868030	4.250036760	-1.917039780
C 	4.618271430	4.446326790	-1.828609010
C 	3.799862700	3.397595330	-1.427231620
C 	4.323326010	2.122997130	-1.105754820
H 	7.628970870	2.833803430	-1.671566510
H 	6.655994470	5.064681560	-2.228789770
H 	2.728289020	3.561446790	-1.360436580
H 	4.182946740	5.413118860	-2.068636180
I 	-1.161866540	2.565270050	0.111232020
I 	-2.340834040	5.064338730	0.543424950
