22

C 	0.038626822	0.381814542	0.113445014
C 	0.956042707	-0.752569389	0.446162226
H 	0.436831470	-1.694056694	0.219690429
C 	-1.207041662	0.220424023	-0.564248382
H 	0.345663034	1.398845089	0.360743331
O 	-1.967577987	1.162569702	-0.863770199
C 	1.350704562	-0.764234416	1.943662108
H 	2.037542768	-1.594220202	2.145021245
H 	0.460507680	-0.882196053	2.571441425
H 	1.846411924	0.168933553	2.232402892
H 	-1.487536757	-0.827657110	-0.821748910
C 	4.361614943	-0.518902140	-2.254906920
C 	3.391460275	-1.512667638	-2.421485074
C 	2.301271620	-1.581470570	-1.548410224
C 	2.169804930	-0.668841203	-0.490716291
C 	3.144766278	0.331403153	-0.337173255
C 	4.233412154	0.403824236	-1.209849824
H 	3.481503387	-2.233868655	-3.231104620
H 	1.546476444	-2.354057946	-1.685394440
H 	3.057528036	1.058043323	0.467362436
H 	4.981120654	1.182819693	-1.075952046
H 	5.208480257	-0.460807009	-2.935066411
