22

C 	 -1.589964	  0.662191	  0.735321
C 	 -0.672548	 -0.472193	  1.068038
H 	 -1.191759	 -1.413680	  0.841566
C 	 -2.835632	  0.500801	  0.057627
H 	 -1.282928	  1.679222	  0.982619
O 	 -3.596169	  1.442946	 -0.241894
C 	 -0.277886	 -0.483858	  2.565538
H 	  0.408952	 -1.313843	  2.766897
H 	 -1.168083	 -0.601819	  3.193317
H 	  0.217821	  0.449310	  2.854279
H 	 -3.116127	 -0.547280	 -0.199873
C 	  2.733024	 -0.238525	 -1.633031
C 	  1.762870	 -1.232291	 -1.799609
C 	  0.672681	 -1.301094	 -0.926534
C 	  0.541214	 -0.388464	  0.131160
C 	  1.516176	  0.611780	  0.284703
C 	  2.604822	  0.684201	 -0.587974
H 	  1.852913	 -1.953492	 -2.609229
H 	 -0.082114	 -2.073681	 -1.063519
H 	  1.428937	  1.338420	  1.089238
H 	  3.352530	  1.463196	 -0.454076
H 	  3.579890	 -0.180430	 -2.313191
