22

C 	0.035658649	0.409596296	0.120770221
C 	0.940451969	-0.749060804	0.405045713
H 	0.405549425	-1.675426243	0.152627752
C 	-1.248487766	0.286554678	-0.491908617
H 	0.373232523	1.416827844	0.369026929
O 	-2.003792094	1.251240453	-0.730893082
C 	1.344914036	-0.814622805	1.900908594
H 	2.024214152	-1.658854184	2.068353929
H 	0.458829463	-0.942880613	2.533321734
H 	1.856041093	0.103163994	2.213011264
H 	-1.566797034	-0.750636908	-0.751425326
C 	4.395759021	-0.530475428	-2.234676394
C 	3.461392640	-1.562095937	-2.375756805
C 	2.349607679	-1.622361916	-1.528499720
C 	2.162805654	-0.663185423	-0.521972577
C 	3.102581984	0.373245348	-0.392544668
C 	4.211839517	0.437852256	-1.240009050
H 	3.596558386	-2.320470301	-3.144732248
H 	1.623374500	-2.425730099	-1.644615264
H 	2.972399544	1.134411229	0.374313618
H 	4.932209182	1.245712907	-1.125431289
H 	5.259271028	-0.479676074	-2.894810193
