24

H 	1.911583253	0.935359111	-0.025748281
C 	0.000000000	0.000000000	0.000000000
C 	1.358475229	-0.000000000	-0.000000000
C 	2.179087340	-1.194095645	-0.000000000
O 	3.436435273	-1.116978724	0.027536831
H 	-0.526416217	-0.955088770	0.015958881
C 	-2.604637150	3.382772854	-0.048409027
C 	-1.216155353	3.580712742	-0.093817742
C 	-0.349165700	2.492668488	-0.079478200
C 	-0.858553868	1.173553572	-0.017623259
C 	-2.259448133	0.991478905	0.023252526
C 	-3.124534080	2.084891071	0.008946533
H 	-0.812881232	4.589362461	-0.143349745
H 	0.723103329	2.663409575	-0.124439056
H 	-2.661713731	-0.019048779	0.067645615
H 	-4.200050149	1.927670579	0.041841308
H 	-3.275939550	4.238463749	-0.060001437
C 	1.567317977	-2.579895114	-0.033932055
H 	2.364568264	-3.321304372	-0.112506870
H 	0.876803522	-2.687141975	-0.878252277
H 	0.997307583	-2.762003926	0.886213068
Zn	4.724220506	0.520827636	0.261964380
Cl	6.290135065	-0.162339446	1.560650481
Cl	3.978835679	2.242970740	-0.830191062
