24

H 	  1.911583	  0.935359	 -0.025748
C 	  0.000000	  0.000000	  0.000000
C 	  1.358475	 -0.000000	  0.000000
C 	  2.179087	 -1.194096	  0.000000
O 	  3.436435	 -1.116979	  0.027537
H 	 -0.526416	 -0.955089	  0.015959
C 	 -2.604637	  3.382773	 -0.048409
C 	 -1.216155	  3.580713	 -0.093818
C 	 -0.349166	  2.492668	 -0.079478
C 	 -0.858554	  1.173554	 -0.017623
C 	 -2.259448	  0.991479	  0.023253
C 	 -3.124534	  2.084891	  0.008947
H 	 -0.812881	  4.589362	 -0.143350
H 	  0.723103	  2.663410	 -0.124439
H 	 -2.661714	 -0.019049	  0.067646
H 	 -4.200050	  1.927671	  0.041841
H 	 -3.275940	  4.238464	 -0.060001
C 	  1.567318	 -2.579895	 -0.033932
H 	  2.364568	 -3.321304	 -0.112507
H 	  0.876804	 -2.687142	 -0.878252
H 	  0.997308	 -2.762004	  0.886213
Zn	  4.724221	  0.520828	  0.261964
Cl	  6.290135	 -0.162339	  1.560650
Cl	  3.978836	  2.242971	 -0.830191
