32

H 	1.576600590	2.263327990	-0.539134250
C 	3.395174040	1.147240430	-0.672461150
C 	2.034378400	1.281942000	-0.495183670
C 	1.145814800	0.192021100	-0.215013620
O 	-0.091854570	0.376412690	0.032189880
H 	3.825398880	0.148164560	-0.707179490
H 	3.537092810	2.015142990	1.960632580
H 	5.200647160	1.328665580	1.464219420
H 	3.824570300	0.175430380	1.976115180
C 	4.151901060	1.167118700	1.683248920
C 	0.544993370	-2.288091520	0.106111780
C 	1.631347670	-1.248558180	-0.200068610
H 	-0.253384270	-2.255725330	-0.642120260
H 	0.088459810	-2.106321890	1.084175600
H 	0.983280720	-3.292512620	0.105357020
H 	2.102700600	-1.457159530	-1.171754690
H 	2.444373750	-1.315917390	0.539368760
C 	6.088391110	4.210759100	-1.986640690
C 	4.775507420	4.549959360	-1.630871650
C 	3.886268290	3.568754570	-1.196595230
C 	4.293968340	2.219582550	-1.111853280
C 	5.619832070	1.893465390	-1.472597040
C 	6.508190990	2.877083780	-1.906374820
H 	4.445182420	5.584641270	-1.693796910
H 	2.873964250	3.851854050	-0.921513760
H 	5.947996640	0.856709380	-1.408593600
H 	7.524209200	2.606427040	-2.185583880
H 	6.777325420	4.980877690	-2.327180600
B 	-0.838909350	1.843671110	0.220950220
F 	-2.132684430	1.494571430	0.514947810
F 	-0.681380610	2.508268930	-0.993296490
F 	-0.154016610	2.457352350	1.268581050
