30

H 	 -0.566694	 -2.058036	 -0.055742
C 	  0.000000	  0.000000	  0.000000
C 	 -0.910290	 -1.031722	  0.000000
C 	 -2.333126	 -0.856125	  0.000000
O 	 -3.111411	 -1.836625	 -0.182972
H 	 -0.364304	  1.017624	  0.127623
H 	  0.286539	 -0.502839	 -2.714652
H 	  0.764631	  1.277296	 -2.404089
H 	 -1.034461	  0.796861	 -2.567959
C 	  0.003170	  0.507674	 -2.448533
C 	 -2.971510	  0.502587	  0.190141
H 	 -2.819328	  1.111002	 -0.712262
H 	 -2.532938	  1.043682	  1.035338
H 	 -4.044578	  0.375305	  0.346245
C 	  4.251295	 -0.364197	  0.337038
C 	  3.628404	  0.881333	  0.479336
C 	  2.243287	  0.983641	  0.357410
C 	  1.451646	 -0.155948	  0.099726
C 	  2.094471	 -1.404658	 -0.043776
C 	  3.478677	 -1.504153	  0.074422
H 	  4.222331	  1.769170	  0.683702
H 	  1.758972	  1.952771	  0.465078
H 	  1.512452	 -2.297195	 -0.255206
H 	  3.960174	 -2.472480	 -0.039664
H 	  5.331855	 -0.447498	  0.427335
Ti	 -2.967934	 -3.881742	 -0.822390
Cl	 -2.677735	 -5.998749	 -1.526065
Cl	 -5.196751	 -3.875515	 -0.840732
Cl	 -1.864735	 -2.978478	 -2.594826
Cl	 -1.938891	 -4.203821	  1.164324
