30

H 	1.627716632	2.291217260	-0.588902348
C 	3.399897426	1.103090468	-0.675453877
C 	2.050770702	1.298476638	-0.489015083
C 	1.131215479	0.272497570	-0.092679447
O 	-0.057495967	0.553637898	0.236731730
H 	3.790223013	0.087749635	-0.639514417
H 	3.722340215	2.263560136	1.825271075
H 	5.203111929	1.169721702	1.501647217
H 	3.600288171	0.432002768	2.119004257
C 	4.144023691	1.273530537	1.705781734
C 	1.538422538	-1.183192015	-0.022427284
H 	2.202840354	-1.339034905	0.838921562
H 	2.078170185	-1.498716190	-0.921651932
H 	0.646433574	-1.798434874	0.111271961
C 	6.198514844	3.973928621	-2.174043280
C 	6.549636662	2.622930385	-2.068672778
C 	5.628943586	1.702457785	-1.569736588
C 	4.337041119	2.110312331	-1.174260023
C 	3.998522166	3.476490401	-1.284069697
C 	4.921037369	4.395126292	-1.779011763
H 	7.538915407	2.290006823	-2.374055385
H 	5.902903326	0.652163977	-1.484910407
H 	3.015956772	3.821980461	-0.975406803
H 	4.646618579	5.444481440	-1.856859712
H 	6.915243979	4.695681546	-2.558849097
Ti	-1.207474599	2.309238930	0.692100921
Cl	-2.287788005	4.225018571	1.165177070
Cl	-2.823676657	0.906331622	1.314793449
Cl	0.489326294	2.726409091	2.148568199
Cl	-1.000122013	2.753144125	-1.514626892
