28

H 	1.773092900	2.085843700	1.202973800
C 	3.608191980	1.094160460	0.350242930
C 	2.133715590	1.314073960	0.524566770
C 	1.105240290	0.623128000	-0.212523050
O 	-0.138300200	0.905809090	-0.076172930
H 	3.813567460	0.020117110	0.250635000
H 	5.485100560	1.470404450	1.395721030
H 	4.115781990	1.090857290	2.469559370
C 	4.412845590	1.621932340	1.558407520
H 	4.234933870	2.690906250	1.716311770
N 	1.427165150	-0.374890180	-1.068127160
H 	0.676971860	-0.824378570	-1.582242040
H 	2.386555340	-0.629136330	-1.276276400
C 	3.986861580	3.162380870	-1.126541550
C 	4.355553860	3.764379930	-2.330942920
C 	4.765944070	2.976433280	-3.412966060
C 	4.796444900	1.581799830	-3.293492200
C 	4.412768010	1.015949100	-2.083877540
C 	4.022016720	1.764068750	-0.969592080
H 	3.659744620	3.780332440	-0.293682080
H 	4.316338430	4.846745720	-2.426676750
H 	5.055943260	3.441344730	-4.352319650
H 	5.105459170	0.942260490	-4.116073980
F 	4.409845420	-0.374256920	-1.986512460
Al	-1.067895110	2.320249640	0.719166990
F 	-1.113493670	3.477385750	-0.502113300
F 	-0.078413280	2.788759160	2.016833880
F 	-2.533048600	1.635642840	1.161043720
