30

H 	  2.013991	  0.950903	  0.078081
C 	  0.000000	  0.000000	  0.000000
C 	  1.494978	 -0.000000	  0.000000
C 	  2.312660	 -1.169994	  0.000000
O 	  3.573727	 -1.081299	  0.121449
H 	 -0.357694	 -0.745384	 -0.726170
H 	 -1.672033	  1.345905	 -0.381654
H 	 -0.232970	  1.682524	 -1.374994
C 	 -0.577681	  1.379512	 -0.379602
H 	 -0.261505	  2.141473	  0.341748
C 	  1.716016	 -2.550859	 -0.130634
H 	  1.132951	 -2.788480	  0.768431
H 	  2.516934	 -3.283003	 -0.249212
H 	  1.030153	 -2.606575	 -0.984652
C 	 -1.364383	 -1.326086	  3.910287
C 	 -0.412352	 -0.306321	  3.807126
C 	  0.027795	  0.118641	  2.550892
C 	 -0.482733	 -0.471916	  1.381372
C 	 -1.428896	 -1.500775	  1.492685
C 	 -1.874622	 -1.920716	  2.749505
H 	 -0.005538	  0.155092	  4.703904
H 	  0.777843	  0.902483	  2.482076
H 	 -1.822833	 -1.969594	  0.592557
H 	 -2.617896	 -2.711695	  2.823012
H 	 -1.705813	 -1.658050	  4.888054
Ti	  5.080525	  0.435900	  0.457651
Cl	  6.541499	  2.101166	  0.813011
Cl	  6.535594	 -1.248807	  0.484763
Cl	  4.394795	  1.201415	 -1.556150
Cl	  3.882894	  0.836873	  2.341631
