30

H 	1.560400348	2.177716062	0.968571485
C 	3.604759108	1.438697460	0.477732748
C 	2.110772683	1.384722858	0.470635411
C 	1.330952822	0.413332799	-0.226337933
O 	0.065760198	0.511120288	-0.277626814
H 	3.998747520	0.421562653	0.622903236
H 	5.239456090	2.356549546	1.590445416
H 	3.808058173	1.987375086	2.583295661
C 	4.144721226	2.345308634	1.603504764
H 	3.791779357	3.374433494	1.472234945
C 	1.973542947	-0.754105611	-0.936271087
H 	2.548007735	-0.391964611	-1.798588287
H 	1.198592677	-1.442627867	-1.278256747
H 	2.675730257	-1.279900694	-0.277991553
C 	4.941848842	2.735898250	-3.451624898
C 	3.959733189	3.461371336	-2.768936288
C 	3.528389964	3.043707699	-1.507213162
C 	4.077959836	1.894200299	-0.912418635
C 	5.054359047	1.166022423	-1.607090393
C 	5.491107460	1.588276511	-2.866285040
H 	3.522718504	4.349155753	-3.220010101
H 	2.755045490	3.606886742	-0.990993812
H 	5.478800665	0.269827065	-1.157765408
H 	6.257828007	1.021884106	-3.390543212
H 	5.276466113	3.059969529	-4.434381510
Ti	-1.494339530	1.877175682	0.343134378
Cl	-3.013705257	3.375427628	1.036393017
Cl	-2.895180896	0.484472848	-0.683617535
Cl	-0.798108807	1.325721153	2.422267576
Cl	-0.343386736	3.358801268	-0.931453631
