28

H 	1.462836338	1.571715265	1.389192657
C 	3.510870681	1.315135812	0.503865820
C 	2.028330124	1.124823722	0.574030582
C 	1.231774715	0.409381857	-0.392812318
O 	-0.050747043	0.464677234	-0.379464300
H 	3.986804142	0.326793838	0.648592357
H 	5.094733202	2.336347524	1.603931272
H 	3.716223539	1.843061681	2.617980168
C 	4.005118730	2.242405982	1.639285508
H 	3.569254159	3.241047012	1.529182897
N 	1.817655145	-0.365929197	-1.332108240
H 	2.814180886	-0.305798046	-1.506644474
H 	1.223259438	-0.778610397	-2.042931089
C 	4.762777894	2.778116132	-3.387700036
C 	3.664398579	3.353978391	-2.737215057
C 	3.259397687	2.882807540	-1.486459577
C 	3.951644313	1.824759768	-0.871605977
C 	5.048781879	1.249853914	-1.529092408
C 	5.455289206	1.724874046	-2.781941482
H 	3.117973699	4.168876166	-3.206272649
H 	2.392109319	3.323015836	-0.997433984
H 	5.593516480	0.433567022	-1.055793935
H 	6.310589562	1.274034330	-3.280221999
H 	5.075365759	3.147330054	-4.361716688
Al	-1.057167186	1.869313463	0.340000306
F 	-0.291818682	3.205119942	-0.363250688
F 	-0.752986358	1.798813739	2.000612198
F 	-2.631010616	1.570091021	-0.140690137
