20

H 	1.927235324	0.925937023	-0.003553210
C 	0.000000000	0.000000000	0.000000000
C 	1.354170940	0.000000000	-0.000000000
C 	2.210921210	-1.168793193	-0.000000000
O 	3.419233617	-1.181097691	-0.009665078
H 	-0.503934544	-0.965738020	-0.005419144
C 	-2.639813984	3.356552965	0.007850664
C 	-1.254065343	3.572886532	0.053631420
C 	-0.374660246	2.494925210	0.051400967
C 	-0.865140685	1.169166600	0.004317283
C 	-2.263016324	0.969062880	-0.038294704
C 	-3.141995170	2.051747130	-0.038586622
H 	-0.864062296	4.587304223	0.091614514
H 	0.695373269	2.679867936	0.088868553
H 	-2.650615863	-0.047096609	-0.073345366
H 	-4.215210213	1.880093011	-0.073472214
H 	-3.322185685	4.203477991	0.009514097
Br	1.278261617	-2.980284571	0.022620404
I 	4.915071850	1.264478684	-0.074591881
I 	6.241868934	3.689901629	-0.141004824
