20

H 	0.005087785	0.036509158	-0.072809655
C 	-0.037705592	-2.099856938	0.002798706
C 	0.556498447	-0.886769678	0.098296326
C 	1.946925812	-0.636880300	0.421352969
O 	2.490055249	0.439734198	0.499936202
H 	0.580671723	-2.979169567	0.179003448
C 	-4.111290665	-2.977898106	-0.929979763
C 	-3.701648997	-1.639007858	-0.836374243
C 	-2.379602413	-1.328682385	-0.534298355
C 	-1.433142631	-2.356935792	-0.316737705
C 	-1.862929580	-3.699383714	-0.411765784
C 	-3.188302014	-4.007330106	-0.717324313
H 	-4.419843937	-0.838981434	-0.999904338
H 	-2.079315438	-0.286826909	-0.463982952
H 	-1.142850017	-4.497918751	-0.244824849
H 	-3.502119661	-5.046054235	-0.788340777
H 	-5.146213134	-3.214053779	-1.166795908
Br	3.104757657	-2.273745427	0.784622273
I 	1.038807862	2.860326530	-0.007217721
I 	-0.468775665	5.120508662	-0.523208302
