34

H 	-0.336550701	-2.102638830	-0.032456883
C 	0.000000000	0.000000000	0.000000000
C 	-0.795797131	-1.121882129	0.000000000
C 	-2.231192577	-1.101535529	0.000000000
O 	-2.916499739	-2.156701284	-0.147576675
H 	-0.469280645	0.973749731	0.123323970
H 	0.361020423	-0.457470375	-2.702265142
H 	0.669715702	1.355515760	-2.374539088
H 	-1.075807008	0.714858877	-2.563438732
C 	-0.017720233	0.519860178	-2.431397093
C 	-4.526328507	0.032220422	0.183586360
C 	-3.002625161	0.200067151	0.175196192
H 	-4.845781789	-0.616543371	1.004920621
H 	-4.878635085	-0.420543423	-0.748162757
H 	-5.007874593	1.008932981	0.302827167
H 	-2.657646319	0.678040217	1.103133387
H 	-2.695459196	0.875796776	-0.637712429
O 	4.186301070	2.418846590	0.837504139
H 	3.554023968	3.153625344	0.928144655
C 	3.502984625	1.255590389	0.551727350
C 	4.262679738	0.086233763	0.401219314
C 	3.617165121	-1.118042077	0.108463222
C 	2.230378962	-1.176690370	-0.028501941
C 	1.459772067	-0.006302109	0.123372640
C 	2.114042248	1.210406253	0.409275980
H 	5.342812335	0.138490108	0.508834562
H 	4.208239775	-2.022208720	-0.015433360
H 	1.526482883	2.121587602	0.523814145
H 	1.753630440	-2.123023155	-0.263169586
Sn	-2.361146002	-4.296792275	-0.864756973
Cl	-4.717019579	-4.502985702	-0.824489822
Cl	-1.139720736	-4.445263585	1.182915688
Cl	-1.845059305	-6.501872916	-1.652365697
Cl	-1.343482104	-3.130279956	-2.696683515
