33

H 	1.624960637	-1.375753995	-0.028903135
C 	0.000000000	0.000000000	0.000000000
C 	0.548049187	-1.261324170	0.000000000
C 	-0.211304711	-2.479212160	0.000000000
O 	0.338951046	-3.612618251	-0.134193235
H 	-1.076327930	0.103911511	0.119646322
H 	0.595543988	0.144871713	-2.698710784
H 	-0.870722157	1.253372917	-2.366082860
H 	-1.110028916	-0.587457034	-2.586414034
C 	-0.448479341	0.257746362	-2.435348084
C 	-2.369969297	-3.856630420	0.172139242
C 	-1.726083643	-2.465582333	0.158896178
H 	-1.985727238	-4.459973414	1.000326365
H 	-2.157823881	-4.398579179	-0.754414231
H 	-3.455821289	-3.763245678	0.282832807
H 	-1.966849697	-1.915338314	1.079568523
H 	-2.136937522	-1.859799085	-0.663296410
C 	2.135685959	3.687244039	0.414030999
C 	2.839467318	2.510078982	0.124185096
C 	2.161746323	1.301384668	-0.018161981
C 	0.758669147	1.246233130	0.125289375
C 	0.062960629	2.440687329	0.408719590
C 	0.743721810	3.648693132	0.556514224
H 	3.920447268	2.537423171	0.008751394
H 	2.722936303	0.400517811	-0.249603780
H 	-1.020091872	2.411320637	0.516634891
H 	0.191999619	4.558545690	0.781203482
H 	2.669890248	4.628077872	0.524176751
Sn	2.472345783	-4.247286678	-0.793955667
Cl	1.433811693	-6.372107796	-0.758077415
Cl	3.182124306	-3.258084707	1.262346537
Cl	4.646841882	-4.951348198	-1.520127815
Cl	2.046458731	-2.792050786	-2.652359188
