33

H 	1.684959910	2.195881610	-0.653688640
C 	3.494833590	1.079018630	-0.704065710
C 	2.131166190	1.212160840	-0.574738130
C 	1.228922530	0.136551660	-0.272188430
O 	-0.000827070	0.336542520	-0.037185110
H 	3.929267810	0.081279380	-0.694843870
H 	3.665395270	2.145363660	1.845083320
H 	5.204603100	1.130964960	1.541544000
H 	3.613879680	0.297492210	2.058462090
C 	4.133410790	1.179199830	1.700292700
C 	0.623614570	-2.337580770	0.085052290
C 	1.719637010	-1.306036040	-0.210193090
H 	-0.150810350	-2.321099260	-0.688570970
H 	0.136518160	-2.133678740	1.043687630
H 	1.059775480	-3.342371550	0.120336110
H 	2.221018830	-1.533150750	-1.162241880
H 	2.508206670	-1.353041290	0.557044210
C 	6.231860480	4.131381630	-1.949029990
C 	4.908114760	4.473756450	-1.638488460
C 	4.004540910	3.495437200	-1.228723250
C 	4.408139790	2.146546190	-1.121236500
C 	5.745700110	1.817955640	-1.432879560
C 	6.647969860	2.798178400	-1.845493040
H 	4.581421590	5.508594520	-1.716160400
H 	2.984452290	3.781800890	-0.988172290
H 	6.071189840	0.781655600	-1.350429730
H 	7.673172830	2.525674080	-2.086673120
H 	6.933204530	4.899529170	-2.267881220
Sn	-1.271306930	2.270923560	0.192109760
Cl	-2.914772450	0.668368760	0.769202240
Cl	-0.718753210	2.611806880	-2.111431910
Cl	-2.615193790	4.242931720	0.438183950
Cl	0.358875280	2.858527900	1.852969820
