30

H 	1.909848464	0.913725634	0.192167732
C 	0.000000000	0.000000000	0.000000000
C 	1.351826872	0.000000000	0.000000000
C 	2.201171447	-1.201955229	0.000000000
O 	3.156803635	-1.281045038	0.838916847
H 	-0.525334640	-0.946699660	-0.137590633
O 	-3.393667265	4.451735600	0.765900381
H 	-4.327308386	4.208327126	0.632432218
C 	-2.600463021	3.344908744	0.575507988
C 	-1.215107334	3.509830968	0.749928971
C 	-0.361682780	2.431281996	0.570458716
C 	-0.860613688	1.156702879	0.208165122
C 	-2.255281977	1.011894028	0.056489269
C 	-3.120795224	2.089336125	0.231422869
H 	-0.831895592	4.485247425	1.037819581
H 	0.702815156	2.572922574	0.738824045
H 	-2.664368146	0.037953001	-0.206515331
H 	-4.195019948	1.957800339	0.106417542
N 	1.987378775	-2.235637481	-0.850962690
C 	2.765005641	-3.475218722	-0.698236172
C 	1.146057563	-2.159603055	-2.051515058
H 	3.149669931	-3.538683559	0.319220286
H 	3.607701698	-3.492283775	-1.402538991
H 	2.110287823	-4.328290352	-0.907758511
H 	0.258842567	-2.798025801	-1.948490824
H 	1.726403826	-2.510562695	-2.913973772
H 	0.833095473	-1.131587118	-2.228687081
Zn	3.313117062	-0.092213791	2.511080562
Cl	3.129812677	-1.390292396	4.222164047
Cl	3.563567809	2.001175212	1.967154313
