30

H 	2.423436440	0.371004790	1.039345760
C 	4.089421450	-0.181280750	-0.157020200
C 	2.862273520	-0.374288720	0.378919290
C 	1.902672110	-1.423099290	-0.003883280
O 	0.678256960	-1.109955700	-0.176835510
H 	4.483504020	-0.916718030	-0.860767140
O 	7.490555590	4.245188610	0.748371330
H 	8.358685830	4.118965430	0.323545100
C 	6.696505120	3.147909200	0.504819790
C 	5.395591830	3.170935140	1.037512820
C 	4.541649100	2.098102790	0.827856270
C 	4.956956160	0.966837940	0.083198010
C 	6.262170390	0.972269220	-0.452452960
C 	7.129879230	2.043513730	-0.243938130
H 	5.072565000	4.043031990	1.600669450
H 	3.531513500	2.148687530	1.226845370
H 	6.601829730	0.119838200	-1.039326160
H 	8.135156810	2.026151650	-0.664128640
N 	2.277340280	-2.714863540	-0.192837560
C 	1.299298970	-3.687203880	-0.711217680
C 	3.556758500	-3.285451840	0.252375940
H 	0.494794990	-3.156512720	-1.219757080
H 	0.876000840	-4.281554240	0.110150900
H 	1.809397080	-4.359827950	-1.410176900
H 	4.190039690	-3.546264970	-0.606284010
H 	3.354794370	-4.200535400	0.823105960
H 	4.085505930	-2.578449930	0.890965390
Zn	-0.138209540	0.772232840	-0.285518340
Cl	-1.241835610	0.901158300	-2.132787780
Cl	0.392390790	1.953645820	1.468997810
