29

H 	2.035150537	0.931078148	0.140730915
C 	0.000000000	0.000000000	0.000000000
C 	1.494151972	0.000000000	0.000000000
C 	2.300241278	-1.186654057	-0.000000000
O 	3.544637686	-1.215008726	0.193657395
H 	-0.351541710	-0.737344307	-0.735692600
H 	-1.666337337	1.360869816	-0.350332200
H 	-0.236697827	1.698937662	-1.355434641
C 	-0.571638530	1.387419067	-0.358891684
H 	-0.243592794	2.140928537	0.366190929
O 	1.623347205	-2.331792762	-0.241805046
C 	2.405732496	-3.565617477	-0.204936133
H 	2.852980705	-3.693596590	0.784853718
H 	3.194661203	-3.533115058	-0.961384711
H 	1.687036646	-4.357574907	-0.416647151
C 	-0.001699155	0.105835117	2.553328214
C 	-0.449095216	-0.322498278	3.805359185
C 	-1.380305374	-1.355717326	3.859345773
C 	-1.873604673	-1.975497197	2.713336199
C 	-1.410449118	-1.537658050	1.469540532
C 	-0.484896636	-0.488675034	1.373997971
H 	0.743157465	0.896175299	2.501562720
H 	-0.080879980	0.126611948	4.723584302
F 	-1.826300433	-1.782797882	5.081901015
H 	-2.599507328	-2.779284458	2.801762244
H 	-1.777301904	-2.016690995	0.564168782
Zn	4.829714956	0.163551797	1.092751939
Cl	3.623698781	1.551826219	2.245999364
Cl	6.814392375	-0.404396142	0.523462072
