29

H 	1.761297950	2.349939670	0.164579610
C 	3.514158430	1.007673060	-0.187513420
C 	2.071181000	1.313849910	0.047814700
C 	1.028749680	0.343909070	0.221640820
O 	-0.178764910	0.616189320	0.458169620
H 	3.605532490	-0.016365210	-0.566631600
H 	5.362795870	0.870808580	0.967779020
H 	3.918494830	0.326718360	1.862704000
C 	4.303080250	1.074208260	1.160071660
H 	4.213217060	2.062347000	1.622102780
O 	1.424406560	-0.949358540	0.118857220
C 	0.374821120	-1.956349620	0.285014420
H 	-0.414399470	-1.799227570	-0.455709260
H 	-0.050744250	-1.889241530	1.290637780
H 	0.878167230	-2.911553530	0.132810330
C 	4.181007810	3.346382730	-0.997108740
C 	4.687976950	4.214711900	-1.967688310
C 	5.084725320	3.685437800	-3.194442800
C 	4.989787050	2.325982500	-3.478916080
C 	4.476302660	1.473630760	-2.493749650
C 	4.074971790	1.966161660	-1.242878510
H 	3.861424210	3.759266150	-0.042517390
H 	4.772689880	5.282625560	-1.785076890
F 	5.579498020	4.534233860	-4.153579160
H 	5.307095310	1.948723460	-4.447554720
H 	4.392302680	0.408817980	-2.704491590
Zn	-1.220412800	2.433724220	0.582611090
Cl	0.132640790	3.975680570	1.278383190
Cl	-3.217139940	1.961879540	-0.038239100
