27

H 	1.424650826	1.618435236	1.289619922
C 	3.494411589	1.062014930	0.775786877
C 	2.016876571	0.825558058	0.835670664
C 	1.252315765	-0.038978915	-0.045378104
O 	0.175966478	0.366843708	-0.588067978
H 	4.049438405	0.152767574	0.520409053
H 	5.119061886	1.869356269	1.967015302
H 	3.903692721	0.961074451	2.910608572
C 	4.050616917	1.655162290	2.074284488
H 	3.534366111	2.591992591	2.319275358
N 	1.706472312	-1.306405677	-0.335197625
C 	1.025845996	-2.092261622	-1.368331091
C 	2.606785478	-2.056677263	0.543166184
H 	0.554352624	-1.417226878	-2.082997800
H 	0.249815449	-2.737720074	-0.931224213
H 	1.764163459	-2.724349528	-1.875484553
H 	3.543993776	-2.308871993	0.028716397
H 	2.120528915	-2.992904478	0.850760608
H 	2.827132699	-1.477226962	1.440178747
C 	3.686044202	1.452907692	-1.712739495
H 	3.967213877	2.238147523	-2.422108729
H 	2.695081940	1.075196821	-2.006385501
H 	4.413212226	0.636457641	-1.795125584
N 	3.748707206	2.011291813	-0.355495615
H 	3.128066925	2.820866190	-0.275476279
I 	-0.015802753	2.935008269	-1.168973501
I 	-0.149913158	5.641407443	-1.909172674
