24

C 	  0.687120	  1.117273	  0.972044
C 	  1.483837	 -0.131331	  0.990574
H 	  0.881504	 -0.933414	  0.551228
C 	 -0.620187	  1.356210	  0.441454
H 	  1.113575	  2.011294	  1.431944
O 	 -1.236067	  2.396314	  0.447306
C 	  1.780104	 -0.508755	  2.468980
H 	  2.370739	 -1.428270	  2.520104
H 	  0.840345	 -0.680715	  3.003742
H 	  2.326025	  0.285108	  2.989613
I 	 -1.627994	 -0.468789	 -0.519102
C 	  2.350209	  0.391947	 -1.344432
C 	  2.785643	 -0.018887	  0.080774
C 	  3.460931	 -1.405252	  0.009367
C 	  3.787091	  1.016935	  0.632217
H 	  4.143593	  0.748244	  1.632604
H 	  3.214516	  0.393429	 -2.019244
H 	  1.912472	  1.397289	 -1.356122
H 	  1.602631	 -0.301575	 -1.746008
H 	  4.300267	 -1.372043	 -0.696284
H 	  2.756503	 -2.169452	 -0.341498
H 	  3.859660	 -1.723171	  0.978393
H 	  4.662346	  1.072110	 -0.026536
H 	  3.350282	  2.021312	  0.680228
