24

C 	0.081122927	0.470883339	0.318613189
C 	0.877839737	-0.777720554	0.337143690
H 	0.275506831	-1.579803598	-0.102202422
C 	-1.226184232	0.709820717	-0.211976475
H 	0.507577611	1.364904974	0.778513473
O 	-1.842064616	1.749924759	-0.206124727
C 	1.174106835	-1.155144009	1.815548846
H 	1.764741900	-2.074659016	1.866673055
H 	0.234347812	-1.327104390	2.350311563
H 	1.720027810	-0.361280938	2.336182356
I 	-2.233991403	-1.115178475	-1.172532940
C 	1.744211516	-0.254442226	-1.997862304
C 	2.179645870	-0.665276147	-0.572657199
C 	2.854933899	-2.051641586	-0.644063851
C 	3.181093431	0.370546079	-0.021213321
H 	3.537595819	0.101854511	0.979172916
H 	2.608519027	-0.252959832	-2.672675252
H 	1.306474755	0.750899848	-2.009552615
H 	0.996633748	-0.947964648	-2.399439041
H 	3.694269140	-2.018432616	-1.349715197
H 	2.150505828	-2.815841315	-0.994928676
H 	3.253662863	-2.369559951	0.324961954
H 	4.056348766	0.425720883	-0.679966642
H 	2.744284447	1.374922951	0.026796917
