30

H 	1.526299270	2.375116280	-0.462393960
C 	3.286712910	1.158466240	-0.684175490
C 	1.952682310	1.380158030	-0.433033190
C 	1.030153530	0.335610860	-0.079497920
O 	-0.189593030	0.502697340	0.218405760
H 	3.627485020	0.128715870	-0.766825110
H 	3.620521250	1.864850520	1.984392010
H 	5.206850900	1.114439810	1.351985220
H 	3.769681530	0.014701980	1.815708690
C 	4.158223780	1.004594170	1.603223400
O 	1.527707640	-0.916515460	-0.065993860
C 	0.602855370	-1.990166920	0.304709770
H 	-0.221278290	-2.037658420	-0.412364860
H 	0.207935180	-1.813819930	1.309123600
H 	1.207254750	-2.897617030	0.270930330
C 	6.087004800	4.070318270	-2.113323970
C 	6.367396060	2.701903530	-2.210030040
C 	5.449322530	1.767165840	-1.729747880
C 	4.229138030	2.180494060	-1.154110320
C 	3.961855920	3.562972170	-1.059706360
C 	4.882180210	4.495339510	-1.535492370
H 	7.300197870	2.366121850	-2.658244720
H 	5.668609930	0.702861060	-1.801610380
H 	3.036998550	3.908732720	-0.605060310
H 	4.663909620	5.557934800	-1.453149910
H 	6.802261160	4.801918530	-2.483073980
B 	-0.940349350	1.993898080	0.429156940
F 	-0.826065160	2.635653660	-0.795899260
F 	-0.208622080	2.603642770	1.440748840
F 	-2.214802570	1.631298820	0.776507240
