29

H 	1.911243156	1.717068905	1.504551491
C 	3.674327298	0.970643818	0.351572521
C 	2.218772437	1.096974111	0.662491224
C 	1.169713400	0.565405981	-0.141620676
O 	-0.038301977	0.966203225	0.023036992
H 	3.917473203	-0.096819941	0.219903534
H 	5.618690190	1.421036648	1.230540757
H 	4.359662429	1.025419014	2.425956927
C 	4.559359629	1.540985211	1.479422252
H 	4.359736700	2.609301194	1.618485917
C 	1.406406588	-0.452327496	-1.223720325
H 	2.264892575	-1.095357990	-1.010835616
H 	1.609920658	0.075421808	-2.165644929
H 	0.502510714	-1.052459158	-1.358048408
C 	3.372334177	2.904756192	-1.287206595
C 	3.614367469	3.531613914	-2.510984836
C 	4.427989126	2.886665924	-3.438694879
C 	5.002155166	1.639385415	-3.190702580
C 	4.743914242	1.021796693	-1.965619268
C 	3.940446652	1.647585244	-0.999713100
H 	2.720176516	3.393666790	-0.566734640
H 	3.178688845	4.498517090	-2.746668545
F 	4.673954422	3.492044498	-4.638408556
H 	5.631811107	1.174256648	-3.944309497
H 	5.177089873	0.045027767	-1.758580197
Al	-0.594929279	2.528621185	0.923350624
F 	0.395225341	3.686330269	0.184325685
F 	-0.134325796	2.260417440	2.523978388
F 	-2.232983612	2.643217410	0.616902585
