28

H 	1.474100687	1.990006877	-0.784838549
C 	3.393239696	1.064091273	-0.499217872
C 	2.020438022	1.095188623	-0.503995803
C 	1.171719703	-0.009596490	-0.099170151
O 	-0.070058547	0.015504081	-0.092242898
H 	3.876421842	0.102699992	-0.343589700
H 	3.453082956	2.386059260	1.913779976
H 	4.979653078	1.335996806	1.753861687
H 	3.354511097	0.550725825	2.223983900
C 	3.900680082	1.402382037	1.835466756
O 	1.852915355	-1.126803946	0.298103144
C 	1.026343872	-2.258407091	0.699096517
H 	0.401783281	-2.586906060	-0.136957376
H 	0.386050375	-1.981586085	1.541933392
H 	1.734251839	-3.037427726	0.985919885
C 	5.610362046	1.850441655	-1.286956022
C 	6.472006596	2.824985671	-1.790650500
C 	5.964353076	4.101410853	-2.016129138
C 	4.634526147	4.430448701	-1.756731292
C 	3.787412325	3.443082712	-1.257733196
C 	4.256406098	2.134842938	-1.016449812
H 	5.990243130	0.847564743	-1.102236631
H 	7.514904062	2.609843351	-2.006044409
F 	6.799597822	5.068031705	-2.504596708
H 	4.281220709	5.440662470	-1.943881212
H 	2.752690176	3.699517683	-1.048137549
I 	-1.507082262	2.242134021	-0.731509325
I 	-2.974381924	4.521724502	-1.367493474
