32

H 	2.405187150	0.590360590	0.564574140
C 	4.235301120	-0.363307780	0.066068610
C 	2.908535670	-0.337939810	0.309886530
C 	1.972735190	-1.441334820	0.052793970
O 	0.849449940	-1.202614260	-0.510425660
H 	4.700536620	-1.298119420	-0.248561050
O 	5.181686120	4.472778300	0.538235430
H 	4.207970080	4.515819220	0.556698430
C 	5.579167330	3.162483310	0.380308290
C 	6.962670040	2.927317990	0.283038550
C 	7.425922880	1.624245060	0.102867120
C 	6.528816280	0.554910910	0.022729430
C 	5.141922630	0.780970010	0.136309290
C 	4.674578350	2.101885910	0.309452470
H 	7.646188500	3.771087480	0.335970250
H 	8.495168330	1.443340720	0.017713210
H 	3.606116350	2.304267300	0.361720590
H 	6.896223940	-0.458627490	-0.124884640
N 	2.254345410	-2.720663150	0.397139590
C 	1.347392110	-3.807101610	-0.016478500
C 	3.331296300	-3.118288380	1.317926960
H 	0.718998860	-3.464621990	-0.837702800
H 	0.707984670	-4.109619700	0.823665020
H 	1.951365380	-4.665863300	-0.331013440
H 	4.132624550	-3.640461760	0.779062450
H 	2.915180490	-3.802096560	2.067827460
H 	3.743178520	-2.244406470	1.821413940
Sn	0.149898520	0.456885100	-1.926019000
Cl	0.258488200	1.921013690	-0.022725220
Cl	-1.698205140	-1.021532860	-2.100367140
Cl	-0.662500710	2.133431770	-3.445254390
Cl	2.153372610	-0.032678230	-3.133469110
