26

H 	0.34460100	-2.01860300	0.32200900
C 	-1.02097800	-0.33552700	0.30665100
C 	0.21697400	-0.94726100	0.19734700
C 	1.38066700	-0.19295100	-0.10417100
O 	2.51354900	-0.72575600	-0.21673600
H 	-1.06704700	0.71621300	0.02845500
H 	-0.72333900	-0.45743000	3.07514600
H 	-2.00805200	0.81455400	2.64778300
H 	-0.20079800	1.21682200	2.47272000
C 	-0.98162900	0.47360000	2.58517300
C 	-4.84482200	-2.25830300	0.29179800
C 	-4.71827800	-0.91442800	-0.06262100
C 	-3.46975700	-0.30113600	-0.02935800
C 	-2.31701500	-1.01940600	0.34422500
C 	-2.46323400	-2.37379300	0.70344500
C 	-3.71344400	-2.98154200	0.68013100
H 	-5.59225700	-0.34464000	-0.36808100
H 	-3.37856000	0.74523000	-0.31204600
H 	-1.59986500	-2.95553400	1.01161400
H 	-3.80751100	-4.02750200	0.96129800
H 	-5.81918100	-2.74002900	0.27028400
H 	1.29231700	0.89141000	-0.25520600
B 	3.90155000	0.17660600	-0.56624400
F 	4.65076700	0.01283500	0.57034700
F 	3.46370000	1.47280400	-0.77262800
F 	4.38421600	-0.44157300	-1.68749400
