27

H 	 -0.785612	 -2.004293	 -0.054749
C 	  0.000000	  0.000000	  0.000000
C 	 -1.002386	 -0.944454	  0.000000
C 	 -2.390172	 -0.620099	  0.000000
O 	 -3.355813	 -1.369428	 -0.108644
H 	 -0.281049	  1.037044	  0.165264
H 	  0.100207	 -0.347316	 -2.751169
H 	  0.835356	  1.318382	 -2.340490
H 	 -1.019594	  1.095871	 -2.381148
C 	 -0.026194	  0.662185	 -2.379312
F 	 -2.673730	  0.724061	  0.122866
C 	  4.199107	 -0.763374	  0.295175
C 	  3.692241	  0.527070	  0.488443
C 	  2.322040	  0.759255	  0.378437
C 	  1.430138	 -0.294296	  0.084383
C 	  1.956185	 -1.589700	 -0.109624
C 	  3.326231	 -1.818446	 -0.004998
H 	  4.364896	  1.349083	  0.721781
H 	  1.926956	  1.762822	  0.525461
H 	  1.294808	 -2.417035	 -0.351968
H 	  3.718349	 -2.821021	 -0.158677
H 	  5.267871	 -0.947528	  0.376213
Ti	 -3.610654	 -3.550467	 -0.688242
Cl	 -3.831904	 -5.687995	 -1.287944
Cl	 -5.769121	 -3.032109	 -0.606864
Cl	 -2.392508	 -2.919993	 -2.478206
Cl	 -2.519547	 -3.927701	  1.237483
