26

C 	0.021418932	0.460594295	0.437693770
C 	0.927071747	-0.708080204	0.677344281
H 	0.359812400	-1.628993250	0.504575936
C 	-1.128075124	0.466654979	-0.439572377
H 	0.272371523	1.427742358	0.868307605
O 	-1.820401512	1.456758794	-0.679749724
C 	1.480597988	-0.725679784	2.118049071
H 	2.170005335	-1.566841087	2.251025613
H 	0.661242323	-0.826367549	2.838937510
H 	2.021882928	0.197934377	2.352351472
O 	-1.386534124	-0.778279394	-0.989947544
C 	-2.525614857	-0.819713541	-1.888019991
H 	-2.370144135	-0.142499806	-2.734360804
H 	-3.440232819	-0.526761353	-1.361950322
H 	-2.588365260	-1.855488628	-2.226969760
C 	4.012018296	-0.557680638	-2.393441454
C 	2.976170922	-1.494764679	-2.473781127
C 	1.991040037	-1.539724100	-1.482764487
C 	2.031468910	-0.657578601	-0.392307387
C 	3.068588172	0.288076835	-0.326328182
C 	4.053764038	0.334836089	-1.316028904
H 	2.935000944	-2.192073845	-3.308119989
H 	1.180218559	-2.261238524	-1.552800945
H 	3.111578642	0.991332823	0.502023964
H 	4.853081335	1.069763264	-1.247590989
H 	4.778411319	-0.521060550	-3.164392296
