23

H 	1.936825903	0.918881491	0.004803730
C 	0.000000000	0.000000000	0.000000000
C 	1.361957830	-0.000000000	0.000000000
C 	2.075846574	-1.244376572	0.000000000
O 	3.316292165	-1.397786127	0.010191167
H 	-0.502879549	-0.970282190	-0.000042036
C 	-2.651450029	3.340117180	0.026802991
C 	-1.265775607	3.559850758	-0.002476221
C 	-0.385143482	2.483599653	-0.012179460
C 	-0.875645513	1.156118294	0.006395444
C 	-2.274434962	0.952533786	0.033386849
C 	-3.153805766	2.033867990	0.044877697
H 	-0.877319302	4.575291207	-0.017516072
H 	0.685075936	2.668224338	-0.035246141
H 	-2.661956168	-0.064387912	0.047099991
H 	-4.227193567	1.861574676	0.066885054
H 	-3.334845148	4.186197783	0.035027861
H 	1.460828255	-2.164291848	-0.009437510
Sn	5.105339575	0.220531085	0.047947880
Cl	4.096232869	0.949910515	-1.984215005
Cl	6.350385085	-1.783075715	0.051811337
Cl	6.915079890	1.782421229	0.086062550
Cl	4.037062614	0.921770877	2.060762627
