23

H 	-0.620561460	-0.037647380	-0.080237220
C 	-0.096594730	-2.029480200	-0.548834490
C 	0.182665480	-0.752196470	-0.265122580
C 	1.559289180	-0.220139740	-0.182914190
O 	1.866357380	0.933658840	0.071804700
H 	0.696953000	-2.746124230	-0.736266270
C 	-4.193063160	-3.450453310	-0.756934340
C 	-3.658059740	-2.699323050	-1.810904350
C 	-2.336465480	-2.240891620	-1.743767600
C 	-1.549874650	-2.533590440	-0.622660850
C 	-2.084878070	-3.284720700	0.431309160
C 	-3.406472320	-3.743152130	0.364172410
H 	-4.259980080	-2.475342090	-2.668805210
H 	-1.927066570	-1.666106670	-2.550293630
H 	-1.482957740	-3.508701660	1.289210020
H 	-3.815871250	-4.317937080	1.170698440
H 	-5.204382420	-3.801257300	-0.808309170
H 	2.325141450	-0.943333670	-0.370958950
Sn	3.478197330	4.356553860	-0.083568990
Cl	2.691806190	4.297934550	-2.251300090
Cl	5.290054070	2.945445370	0.108561670
Cl	4.096735060	6.511478330	0.447392670
Cl	1.839310290	3.637985160	1.370222050
