23

H 	2.414864550	0.863362740	0.345366560
C 	4.228115200	-0.009947300	-0.395881600
C 	2.895693700	0.006985940	-0.113030850
C 	2.086712850	-1.138022910	-0.421487720
O 	0.857523830	-1.265483390	-0.226933950
H 	4.632904730	-0.915055580	-0.856170510
C 	7.138031540	3.032658280	0.294509280
C 	5.798616950	3.268380990	0.642217570
C 	4.834286250	2.289258430	0.423872450
C 	5.192114580	1.046228400	-0.151765300
C 	6.546019370	0.826053780	-0.498039710
C 	7.509571970	1.809409800	-0.276442230
H 	5.511465360	4.219507630	1.084932660
H 	3.801125060	2.485466600	0.697263570
H 	6.832432090	-0.125964810	-0.941752780
H 	8.546952290	1.625474270	-0.546522010
H 	7.887265150	3.801953980	0.468152360
H 	2.610186140	-1.999351550	-0.879100760
Sn	-0.771483880	0.275593760	0.659898300
Cl	0.631288310	0.230790440	2.587219390
Cl	-2.147063470	-1.591293010	0.207572980
Cl	-2.440077650	1.769693700	1.501448660
Cl	-0.017280200	1.632530460	-1.152999720
