23

H 	-0.733141138	-2.000596340	-0.001749638
C 	0.000000000	0.000000000	0.000000000
C 	-0.975479528	-0.940418874	0.000000000
C 	-2.408639724	-0.657109081	0.000000000
O 	-3.242832031	-1.583814745	-0.007036883
H 	-0.288473575	1.051556967	0.000746659
C 	2.312491766	0.870691756	-0.004854795
C 	3.696842889	0.705043024	-0.007455202
C 	4.203885933	-0.591575458	-0.006290179
C 	3.379176153	-1.718049081	-0.002681220
C 	2.000778999	-1.535642764	-0.000407781
C 	1.437331324	-0.238002109	-0.001453163
H 	1.896337923	1.875989415	-0.005309563
H 	4.375414532	1.553255195	-0.009985725
F 	5.556626371	-0.770269800	-0.009445103
H 	3.821495931	-2.710197733	-0.001935399
H 	1.356813851	-2.410152319	0.002532017
C 	-2.916830979	0.777629647	0.009993594
H 	-2.539449906	1.328808133	-0.859883970
H 	-2.574061407	1.300621081	0.911293696
H 	-4.008273846	0.767765521	-0.010767125
I 	-2.596487577	-4.228701774	-0.042763335
I 	-1.977902053	-6.953863360	-0.082979665
