23

H 	2.387218070	0.586966540	-0.243631190
C 	4.285685030	-0.263088090	0.239269160
C 	2.954892410	-0.313540220	-0.016018080
C 	2.157385990	-1.540157750	-0.020670170
O 	0.935908690	-1.509855160	-0.272798460
H 	4.807211270	-1.196796880	0.455773090
C 	6.518413920	0.762499080	0.504280690
C 	7.387081720	1.853755660	0.526776990
C 	6.858409020	3.122812400	0.300369430
C 	5.498798780	3.330553230	0.052876330
C 	4.645642640	2.230633570	0.031691710
C 	5.136131600	0.921798530	0.255469520
H 	6.914193200	-0.236323690	0.679867970
H 	8.450440340	1.734151530	0.715320000
F 	7.698570370	4.202137830	0.320815180
H 	5.128934620	4.338271850	-0.117450020
H 	3.587985060	2.391250040	-0.159143950
C 	2.800842640	-2.887959080	0.279367340
H 	3.267923360	-2.884815240	1.272157930
H 	3.582953210	-3.113543060	-0.456929400
H 	2.033207590	-3.664006630	0.241057850
I 	-0.495193850	0.707795970	-0.885461770
I 	-2.046407640	2.938426700	-1.531010750
