32

H 	1.915053564	0.875566733	0.304015121
C 	0.000000000	0.000000000	0.000000000
C 	1.347769569	0.000000000	0.000000000
C 	2.097398166	-1.269806368	-0.000000000
O 	2.808504254	-1.553572677	1.021224604
H 	-0.507799761	-0.955630018	-0.140323520
O 	-2.362516146	-0.266751526	1.602049053
H 	-1.558450065	-0.804016908	1.755625309
C 	-2.044326390	0.945866713	1.035595863
C 	-2.934564931	2.006863642	1.245090179
C 	-2.640924222	3.271570964	0.736958971
C 	-1.453681284	3.496101009	0.022585788
C 	-0.576406299	2.438702095	-0.199457309
C 	-0.863744847	1.142608569	0.276410539
H 	-3.832713405	1.825225289	1.829722814
H 	-3.334563947	4.091382475	0.909685903
H 	0.329861808	2.592584861	-0.781119552
H 	-1.226082548	4.485422464	-0.365820552
N 	2.001229819	-2.157747989	-1.004813695
C 	2.600673949	-3.496655489	-0.872695742
C 	1.380866814	-1.862783873	-2.303932655
H 	2.900019596	-3.658590343	0.161421675
H 	3.478079242	-3.579440005	-1.525994555
H 	1.860080501	-4.246044410	-1.173038769
H 	0.459924646	-2.445712306	-2.426716837
H 	2.080298995	-2.139976242	-3.101630307
H 	1.147571176	-0.801520730	-2.375464724
Ti	2.439845075	-1.486049179	3.095678498
Cl	1.886699283	-1.478554546	5.272989038
Cl	2.930374832	0.706671842	3.017749444
Cl	0.361674812	-2.311066074	2.497761685
Cl	4.178122028	-2.877999328	3.279754331
