12

C 	1.337586487	0.000000000	0.000000000
C 	0.000000000	0.000000000	0.000000000
C 	0.733091003	1.201608282	3.464315232
H 	1.908166361	-0.927786513	0.024455365
C 	2.205881518	1.191646182	0.000000000
H 	1.496143836	0.453487191	3.646359786
H 	-0.568415861	0.924984374	-0.012740587
H 	-0.235650169	1.112117964	3.942613367
H 	0.945216356	2.048515411	2.822788678
O 	3.400737586	1.188422773	0.067016727
Cl	1.308317963	2.816635097	-0.114771928
H 	-0.550466453	-0.937150308	0.018071805
