12

C 	1.067395030	-0.246911780	0.876984160
C 	1.272468350	-0.312923180	-0.446479940
C 	-1.728704900	-0.318646420	-1.309287840
H 	1.222915200	-1.113945040	1.519000830
C 	0.580709210	0.926534630	1.623817700
H 	-1.954824760	-1.285598420	-0.874032600
H 	1.119107640	0.546884300	-1.090323740
H 	-1.646649370	-0.216402570	-2.386467780
H 	-1.622652880	0.552259590	-0.675052490
O 	0.336106640	0.972510070	2.795639130
Cl	0.320743920	2.458121510	0.582244000
H 	1.609714770	-1.238001180	-0.908007490
