35

H 	1.794582765	1.801674554	1.318261757
C 	3.703573318	1.023238917	0.511400518
C 	2.235955636	0.945439387	0.814899397
C 	1.253855608	0.073499485	0.217961081
O 	0.062876188	0.502294615	-0.023943249
H 	4.096468700	0.048688557	0.207270329
H 	5.573230754	1.634195046	1.448794262
H 	4.434715491	0.840072023	2.565736675
C 	4.516685080	1.533437028	1.719849062
H 	4.154568186	2.513271787	2.049421165
N 	1.531028298	-1.216835576	-0.114499509
C 	0.559116456	-1.969045145	-0.922826449
C 	2.594442717	-2.007715631	0.514772357
H 	0.075818584	-1.296379122	-1.630458992
H 	-0.207986000	-2.429253502	-0.285510338
H 	1.098705017	-2.754232465	-1.461294422
H 	3.374103054	-2.269426107	-0.211658980
H 	2.158910492	-2.935564902	0.905762062
H 	3.034744453	-1.459500942	1.347382091
C 	3.995794836	3.561631804	-3.007786805
C 	3.479397396	4.079369266	-1.815392794
C 	3.399658111	3.274188925	-0.677885756
C 	3.829755326	1.937202394	-0.720539066
C 	4.335074964	1.422996773	-1.922470399
C 	4.429036908	2.232575685	-3.057199252
H 	3.123119763	5.105714102	-1.773653458
H 	2.977170985	3.684646903	0.234503838
H 	4.654127586	0.383171585	-1.970688325
H 	4.827455045	1.822378449	-3.982548276
H 	4.047829568	4.185992976	-3.896485182
Sn	-0.610090074	2.310238911	-1.206236494
Cl	-0.006859671	3.633336086	0.704441437
Cl	-2.730242885	1.267397585	-1.058116777
Cl	-1.213292172	4.213098244	-2.550061627
Cl	0.875651677	1.391494726	-2.847115741
