29

H 	2.129325264	0.117650120	-0.037169618
C 	0.000000000	0.000000000	0.000000000
C 	1.255892147	-0.528666586	0.000000000
C 	1.601955470	-1.925878507	-0.000000000
O 	2.716181210	-2.402623837	-0.107487735
H 	-0.842216914	-0.682919456	0.102185847
H 	0.164074216	0.426949032	-2.861917357
H 	-1.541760838	-0.250211384	-2.497987484
H 	-0.065078692	-1.387597839	-2.500590122
C 	-0.466553194	-0.382657121	-2.515932404
I 	-0.081311364	-3.406596755	0.219008270
C 	-0.357419173	1.618386446	1.795353730
C 	-0.304880870	1.466815861	0.240159139
C 	-1.689877957	1.845830737	-0.333037106
C 	0.776872391	2.410044553	-0.327816651
H 	0.886940879	2.278939697	-1.409917215
H 	-0.616844447	2.653155891	2.049310912
H 	0.612208489	1.377498482	2.242938695
H 	-1.113900966	0.957314546	2.233827871
H 	-1.966013539	2.853492375	-0.002479921
H 	-2.464412996	1.150731750	0.013057740
H 	-1.685025093	1.838858601	-1.427023602
H 	0.494954170	3.451833852	-0.137737968
H 	1.753427445	2.242887282	0.138718095
Sn	4.973086721	-1.373166210	-1.193783783
Cl	5.492754982	-3.638374720	-0.898463860
Cl	4.798106458	-0.051141737	0.758478572
Cl	6.949804643	-0.508069331	-2.170946512
Cl	3.367494333	-0.856979616	-2.850714672
