29

H 	1.332072260	2.122856580	-0.187911440
C 	3.161437200	1.035765580	-0.306728750
C 	1.826757120	1.162841330	-0.061750870
C 	0.923537330	0.125976380	0.371931220
O 	-0.272073480	0.230899830	0.571169580
H 	3.603340000	0.042720000	-0.232867950
H 	3.769843390	2.201699710	2.293605930
H 	4.977238640	0.798987870	2.024278510
H 	3.211289590	0.429291220	2.492161380
C 	3.959234740	1.142095830	2.168767610
I 	1.793671930	-1.925174560	0.718192410
C 	3.825685410	1.757711730	-2.545332540
C 	3.997823710	2.081129190	-1.023978260
C 	5.496567670	1.945817600	-0.664187090
C 	3.524780970	3.525056600	-0.750367290
H 	3.566856140	3.757577870	0.319912690
H 	4.435640310	2.453753010	-3.134030100
H 	2.778564250	1.861128900	-2.849207330
H 	4.153441270	0.736605560	-2.773229580
H 	6.095441010	2.577312200	-1.330838600
H 	5.841253190	0.910343780	-0.777310900
H 	5.690706350	2.264000130	0.364668640
H 	4.174893380	4.232570870	-1.278153060
H 	2.500481550	3.695502060	-1.099635940
Sn	-2.064331000	2.245240870	0.286388230
Cl	-3.393823880	0.400856290	0.858569530
Cl	-1.100561460	2.212991950	-1.873220660
Cl	-3.652512930	3.992268860	0.084602900
Cl	-0.623006540	3.098502230	1.955233020
