31

H 	2.113768002	-0.559964091	0.287170703
C 	0.000000000	0.000000000	0.000000000
C 	1.146444554	-0.972410704	-0.000000000
C 	1.091595722	-2.414706460	0.000000000
O 	1.963333365	-3.101166928	0.659127384
H 	-0.965000045	-0.514935845	-0.123032437
H 	-0.663667897	1.810537398	-0.971436991
H 	0.146198521	0.668275993	-2.076421278
C 	0.157672018	1.091915266	-1.065572330
H 	1.106267998	1.619130458	-0.920215759
N 	0.128527552	-3.113550517	-0.654762647
C 	0.037822803	-4.569762169	-0.461317448
C 	-0.678250407	-2.563825446	-1.750145778
H 	0.354675739	-4.827710969	0.549006540
H 	0.681763430	-5.097265765	-1.177864842
H 	-1.001285170	-4.873148413	-0.621919526
H 	-1.737332987	-2.513036126	-1.469522218
H 	-0.580098528	-3.221981333	-2.622523102
H 	-0.322435243	-1.573766944	-2.029661949
O 	0.000214024	0.674288456	1.276254137
C 	-0.445504832	-0.145628957	2.397012894
C 	-0.499305775	0.748850882	3.625460322
H 	0.251455789	-0.974733765	2.565622533
H 	-1.442284590	-0.554055723	2.156148688
H 	0.497613907	1.141097908	3.852876840
H 	-0.842871296	0.166288407	4.488549984
H 	-1.185436570	1.589938253	3.472514909
Al	3.114065068	-2.619460495	2.035591847
F 	2.048468973	-2.211394913	3.283360819
F 	3.955219304	-1.279456448	1.440350343
F 	4.031819284	-3.997618458	2.295971253
