31

H 	1.882550980	2.011291160	0.729188650
C 	3.779454250	0.881629630	0.662872920
C 	2.283486470	1.010892440	0.562997420
C 	1.358136340	0.091387960	-0.057347010
O 	0.341520000	0.530525540	-0.720233620
H 	4.121410250	-0.105168140	0.313203920
H 	5.398134980	1.100571830	2.075993240
H 	3.916528260	0.414586580	2.795194100
C 	4.303624040	1.150136660	2.080206660
H 	3.996117220	2.149156740	2.407358120
N 	1.525210440	-1.256547120	-0.004680190
C 	0.644455060	-2.127346710	-0.803113070
C 	2.353061890	-1.935341720	1.001126990
H 	0.359191820	-1.618278600	-1.723892190
H 	-0.265263680	-2.378275470	-0.240765200
H 	1.189924910	-3.048455180	-1.032371630
H 	3.194650990	-2.456577140	0.528181680
H 	1.733903080	-2.675128970	1.524566510
H 	2.725119310	-1.223025530	1.736016710
O 	4.357511060	1.897106480	-0.186698450
C 	4.254378210	1.620297520	-1.616343760
C 	4.924175650	2.767769880	-2.357100050
H 	3.202331670	1.547789560	-1.917468530
H 	4.758129900	0.659838760	-1.821722040
H 	4.402623820	3.707849440	-2.148394220
H 	4.877769310	2.582680330	-3.437178970
H 	5.975441970	2.868503580	-2.061499280
Al	-0.044664490	2.207931610	-1.429249990
F 	1.138316460	2.385504490	-2.626013740
F 	0.173084010	3.277585800	-0.135702610
F 	-1.618923490	2.050193790	-1.985885560
