66

C 	0.000000000	0.000000000	0.000000000
C 	0.066515593	-1.371670767	0.000000000
C 	1.292734766	-2.172498454	0.000000000
O 	1.276944276	-3.390352106	0.288743486
H 	-0.226813346	-3.575210624	5.923441349
H 	0.912162825	0.567318881	0.181141571
H 	-0.842467543	-1.960612533	0.033784925
H 	-2.468395370	-6.452095125	-2.012111754
H 	-0.844308480	-5.808335409	-1.704799282
H 	0.930570012	-3.471162243	4.584359705
H 	-1.556772827	-6.965775416	-0.567231284
C 	0.241776495	0.568374324	-2.318609348
H 	-0.625584081	-0.008232421	-2.614731670
H 	-0.164002403	-4.860385363	4.703990664
H 	0.365128006	-1.051259060	2.741613312
H 	0.126140555	1.639280021	-2.195363081
H 	1.221664275	0.182384698	-2.581622772
N 	-1.466271495	-4.538799113	0.625324885
C 	-1.927422207	-4.033262527	1.832272840
N 	-0.940949566	-3.425962533	2.590526256
C 	-2.406789254	-4.977380363	-0.411150006
H 	-0.513897001	-4.296360303	0.343666197
C 	-1.142852949	-3.060537885	3.996696281
H 	0.010823886	-3.480558526	2.238864266
H 	-3.279343827	-5.358958398	0.127490619
C 	-0.086855541	-3.778410640	4.857386165
C 	-1.780633958	-6.120358131	-1.226299947
H 	-4.766545767	-3.646978007	-0.250365022
H 	-2.134147005	-3.449292475	4.255658590
C 	-2.885588073	-3.810601750	-1.281450983
C 	-2.083425206	-3.265246639	-2.297368639
C 	-2.544424472	-2.202921373	-3.081577754
C 	-3.816833328	-1.663089369	-2.858600020
C 	-4.617057871	-2.187453213	-1.838634572
C 	-4.152002856	-3.249511713	-1.054862713
H 	-1.092788967	-3.674147350	-2.484584590
H 	-1.914894436	-1.801271687	-3.873413461
H 	-4.175706221	-0.837110425	-3.468582990
H 	-5.605162877	-1.771082021	-1.652631074
C 	-1.207745736	-1.502281529	4.196911788
C 	-1.512182983	-1.182669604	5.678220091
H 	-1.697857180	-0.108304664	5.801213956
H 	-0.680683333	-1.451760686	6.339138201
H 	-2.408133271	-1.717518078	6.019344650
C 	-2.355732350	-0.944750577	3.327919888
H 	-3.316924650	-1.382773016	3.619833076
H 	-2.421534952	0.145175623	3.430779727
H 	-2.197833786	-1.173521562	2.272650427
C 	0.118920968	-0.827952874	3.784841146
H 	0.954822462	-1.151420268	4.416405320
H 	0.033330002	0.261973796	3.878342443
O 	-3.109037150	-4.120336088	2.194848212
N 	2.483049450	-1.545145113	-0.287046163
H 	3.310559913	-2.126497474	-0.344443273
H 	2.507630860	-0.632201605	-0.720617041
C 	-3.599003054	2.196833186	0.769422390
C 	-2.350089417	2.752177666	1.069883865
C 	-1.183603780	2.037663423	0.790534993
C 	-1.246481787	0.751921485	0.222082712
C 	-2.507894277	0.209085123	-0.085787825
C 	-3.670985377	0.925443900	0.185904318
H 	-2.285514873	3.739225191	1.522709206
H 	-0.212613901	2.467755058	1.031309371
H 	-2.582950377	-0.772760278	-0.539893359
H 	-4.635952571	0.486660775	-0.055564537
H 	-4.509328907	2.750839576	0.987325020
