66

C 	1.094108563	-0.769205576	2.197800155
C 	2.026471136	-1.653921057	1.714185050
C 	3.429477182	-1.350375699	1.423715268
O 	4.274744393	-2.259851380	1.265074205
H 	4.703403741	-4.834311665	6.483664539
H 	1.432922082	0.200356352	2.560924192
H 	1.757180293	-2.689757441	1.544569030
H 	2.969653823	-6.347980654	-1.941124768
H 	3.805298984	-4.866444579	-1.437861640
H 	5.141312671	-3.629170392	5.259175977
H 	4.318255757	-6.428566395	-0.776057629
C 	0.327719777	0.363797849	0.226403183
H 	-0.001212981	-0.552341245	-0.247907411
H 	5.275004589	-5.357650418	4.889278036
H 	2.715548583	-1.916562061	4.390837542
H 	-0.415718243	0.979673667	0.719756213
H 	1.219955481	0.844510628	-0.162408837
N 	3.114781493	-5.017917291	1.194301091
C 	2.754622068	-5.295534701	2.505088773
N 	3.264474374	-4.391984862	3.421897430
C 	2.460419599	-5.705611902	0.076225066
H 	3.577375577	-4.125161690	1.009586396
C 	3.231505542	-4.635484297	4.868007858
H 	3.900765356	-3.683654294	3.067043694
H 	2.208955174	-6.701970072	0.451888536
C 	4.671316798	-4.608665141	5.413428039
C 	3.447968854	-5.844599910	-1.093547075
H 	-0.063842020	-6.472979226	0.711460229
H 	2.829463810	-5.648711262	4.980208910
C 	1.146236818	-5.026805998	-0.324013109
C 	1.122891759	-3.848473653	-1.088181966
C 	-0.089738691	-3.249794459	-1.444762734
C 	-1.302613516	-3.818137056	-1.037229534
C 	-1.290395472	-4.981901712	-0.261891657
C 	-0.075112471	-5.577489339	0.094346124
H 	2.056461568	-3.394855583	-1.414200094
H 	-0.089728904	-2.344284808	-2.048655603
H 	-2.245834314	-3.352892528	-1.314704305
H 	-2.227251320	-5.428399488	0.065605867
C 	2.229668957	-3.673170302	5.604713652
C 	2.170714110	-4.037376673	7.105708706
H 	1.374335091	-3.467462831	7.600522908
H 	3.109340647	-3.811110926	7.623780574
H 	1.952170834	-5.104442866	7.242691728
C 	0.824643193	-3.870233142	4.995673595
H 	0.484299736	-4.904345758	5.121152803
H 	0.099926412	-3.201931587	5.476306373
H 	0.824688715	-3.652245072	3.926401434
C 	2.652180127	-2.196234266	5.447519031
H 	3.621766790	-1.996473958	5.918935293
H 	1.910832888	-1.539256698	5.919528773
O 	2.046154823	-6.261458313	2.821825760
N 	3.814663727	-0.030779404	1.367914691
H 	4.773625591	0.160673909	1.103762586
H 	3.136412022	0.714144302	1.283551807
C 	-2.733980267	-1.956957395	3.716316328
C 	-2.114343520	-0.792809449	4.184589460
C 	-0.879432055	-0.402031332	3.663493236
C 	-0.236964567	-1.175518485	2.679025297
C 	-0.875540216	-2.337957655	2.208309493
C 	-2.111084238	-2.723223228	2.722866420
H 	-2.591693584	-0.191866140	4.955619636
H 	-0.394828649	0.500126323	4.033687194
H 	-0.409440906	-2.942290087	1.437985282
H 	-2.585901434	-3.626944478	2.348919821
H 	-3.695409489	-2.264338511	4.121616828
