37

H 	1.446816910	2.029990920	0.774591350
C 	3.448305320	1.147481790	0.440206540
C 	1.959248530	1.112109260	0.493762270
C 	1.095718320	0.103726690	-0.070675080
O 	-0.026267270	0.414933460	-0.634159090
H 	3.849985200	0.189446580	0.091655790
H 	5.154085350	1.556228630	1.736906590
H 	3.821593930	0.718989270	2.564075510
C 	4.064187210	1.485265400	1.818386180
H 	3.681983530	2.445499810	2.185800250
N 	1.417708500	-1.219225490	-0.063800170
C 	0.575174570	-2.171640840	-0.805859330
C 	2.369016020	-1.820916490	0.880294380
H 	0.141861560	-1.677884150	-1.675540710
H 	-0.239770550	-2.546724290	-0.170932200
H 	1.202138980	-3.013863970	-1.117641340
H 	3.229099070	-2.247771650	0.349168040
H 	1.862129670	-2.627110930	1.426398960
H 	2.713672020	-1.082200490	1.602454600
C 	3.869008420	2.225687780	-0.640303060
C 	5.360287270	2.220677240	-0.885960080
C 	5.941726110	1.223037110	-1.688238440
C 	7.322449080	1.187645280	-1.901841800
C 	8.148815760	2.153736820	-1.313387040
C 	7.582626790	3.154645290	-0.516221210
C 	6.199777880	3.183895850	-0.302742920
H 	3.324758230	2.012765440	-1.565980150
H 	3.534301970	3.210413300	-0.293071200
H 	5.302749030	0.477401670	-2.160986330
H 	7.753614710	0.413335680	-2.533884780
H 	9.223645050	2.130199760	-1.481695270
H 	8.216274130	3.914202670	-0.061932390
H 	5.764404980	3.967776330	0.315277230
B 	-0.394493080	1.904412880	-1.144530870
F 	0.718442670	2.335106310	-1.883644140
F 	-0.602132100	2.682324430	-0.001989850
F 	-1.526927580	1.714346880	-1.904580520
