27

H 	1.524753310	1.693796910	1.254844900
C 	3.596484180	1.250608070	0.533036100
C 	2.116845800	1.030616310	0.625573110
C 	1.378832310	0.076659360	-0.143750670
O 	0.113824090	0.127807330	-0.206091510
H 	4.102944210	0.273283120	0.587042890
H 	5.204406840	2.270788220	1.604682520
H 	3.897424830	1.677961060	2.659528180
C 	4.120515550	2.135658610	1.687961660
H 	3.650783470	3.125441860	1.654046640
C 	2.102396500	-1.015119940	-0.913430100
H 	2.672250750	-0.564995790	-1.737324580
H 	1.373151730	-1.719738140	-1.319665980
H 	2.818159610	-1.546596920	-0.273645960
C 	4.629316440	2.976205720	-3.323688880
C 	3.519126020	3.451353410	-2.615714530
C 	3.181958580	2.891379050	-1.380076530
C 	3.952187420	1.848488480	-0.836626660
C 	5.058806880	1.373091640	-1.555129260
C 	5.400075630	1.936539080	-2.789344770
H 	2.911022670	4.254412130	-3.026758040
H 	2.310502610	3.259724620	-0.842016790
H 	5.656804430	0.559616190	-1.145879140
H 	6.264110260	1.561726400	-3.334925430
H 	4.890872020	3.410827610	-4.286348240
I 	-1.043287280	2.505385350	0.007336820
I 	-2.275941390	5.016732050	-0.009923120
