23

H 	  1.920909	  0.924269	  0.017970
C 	  0.000000	  0.000000	  0.000000
C 	  1.347204	  0.000000	  0.000000
C 	  2.189043	 -1.183596	  0.000000
O 	  3.410838	 -1.194940	 -0.017578
H 	 -0.519909	 -0.958810	  0.001335
C 	 -1.826511	  1.110798	 -1.231924
C 	 -0.891201	  1.212233	  0.006678
C 	 -0.110978	  2.540552	 -0.029184
C 	 -1.754467	  1.140143	  1.300403
H 	 -1.125545	  1.211154	  2.194674
H 	 -2.535726	  1.946741	 -1.225247
H 	 -2.399112	  0.175809	 -1.223526
H 	 -1.250381	  1.154683	 -2.162970
H 	 -0.812418	  3.382092	 -0.018594
H 	  0.499150	  2.622730	 -0.935891
H 	  0.552067	  2.643029	  0.836871
H 	 -2.466294	  1.973915	  1.310521
H 	 -2.322650	  0.203853	  1.349507
Cl	  1.359275	 -2.796780	  0.029195
Zn	  5.010955	  0.358910	 -0.110495
Cl	  4.121265	  2.126043	  0.720543
Cl	  6.609046	 -0.712234	 -1.013630
