30

H 	1.945417482	0.919487198	-0.038654801
C 	0.000000000	0.000000000	0.000000000
C 	1.375049397	-0.000000000	-0.000000000
C 	2.165325430	-1.199711965	-0.000000000
O 	3.428670823	-1.244953457	-0.053847463
H 	-0.509863244	-0.946141916	0.164119137
H 	-1.540542135	-0.372664660	-2.297857229
H 	-0.018799625	-1.449867208	-2.386211150
H 	0.107931360	0.375675138	-2.739826971
C 	-0.461939563	-0.461296779	-2.354723159
O 	1.486536079	-2.360872345	0.054256445
C 	2.285243254	-3.587506356	0.049250746
H 	2.939305650	-3.610567918	0.924841134
H 	2.888499918	-3.637952274	-0.860961193
H 	1.552275834	-4.393905358	0.083644892
C 	-2.205388874	1.047820221	0.411517813
C 	-3.046952751	2.152013997	0.535205442
C 	-2.503884581	3.419721405	0.340176496
C 	-1.158269645	3.615668357	0.028783575
C 	-0.330539151	2.501845822	-0.086154411
C 	-0.836391182	1.197813511	0.104951951
H 	-2.611631040	0.048807433	0.556526521
H 	-4.101009524	2.044315260	0.775167894
F 	-3.318433449	4.510048836	0.453511848
H 	-0.779003086	4.623045812	-0.118077874
H 	0.716442812	2.650850975	-0.334480774
B 	4.435847741	0.083832758	-0.261137963
F 	4.013313046	0.654062508	-1.453472849
F 	5.674798870	-0.493719949	-0.306007159
F 	4.203396113	0.887730376	0.842506800
