30

H 	1.470808320	2.138348320	-0.875629830
C 	3.368866790	1.188833660	-0.499270540
C 	1.991894420	1.246636690	-0.549851390
C 	1.141919420	0.160788930	-0.141484630
O 	-0.125030860	0.172685830	-0.148309330
H 	3.826648900	0.221251800	-0.307436410
H 	4.287230790	2.527466310	1.724029550
H 	4.312106430	0.693350140	2.057910630
H 	2.715168070	1.641555720	2.182117100
C 	3.747557210	1.597412660	1.855556930
O 	1.766940120	-0.952383760	0.289754670
C 	0.910267240	-2.059350360	0.724054440
H 	0.302949530	-2.412700680	-0.113912270
H 	0.258106080	-1.730299390	1.537694810
H 	1.604866030	-2.830052380	1.060357170
C 	5.636424360	1.892703000	-1.207124840
C 	6.549887350	2.826997510	-1.696410180
C 	6.088173760	4.107511110	-1.996004240
C 	4.751192880	4.474055740	-1.827928950
C 	3.851414000	3.526259200	-1.342988710
C 	4.275526880	2.218135890	-1.023061100
H 	5.980910920	0.889609980	-0.962098010
H 	7.597685860	2.578853300	-1.843349030
F 	6.975225110	5.037673430	-2.467101800
H 	4.433223400	5.484097240	-2.072266990
H 	2.813174310	3.814333540	-1.199585820
B 	-1.091076820	1.500290050	-0.499493690
F 	-0.683862850	2.466832300	0.412660310
F 	-2.351459380	1.003482050	-0.292570570
F 	-0.798154290	1.826861370	-1.814673640
