30

H 	1.472703896	2.102483486	-0.894093463
C 	3.376378370	1.177163035	-0.504984682
C 	2.003137698	1.219074249	-0.561679933
C 	1.161425920	0.132179024	-0.144516823
O 	-0.103677269	0.149046903	-0.129775090
H 	3.848577937	0.223716207	-0.281273128
H 	4.837112876	1.649535185	1.826413207
H 	3.267891356	0.731621506	2.249320187
H 	3.211714829	2.559038259	1.887240141
C 	3.754530837	1.621726151	1.867833975
O 	1.789985048	-0.984203366	0.268515811
C 	0.938541719	-2.093889441	0.700059874
H 	0.307758043	-2.424697853	-0.129196255
H 	0.309518666	-1.779804891	1.537096349
H 	1.636193442	-2.875927532	1.000729202
C 	5.635708307	1.925459126	-1.187989374
C 	6.527771867	2.875807314	-1.681784080
C 	6.035649274	4.139677058	-1.998785692
C 	4.692043489	4.479288888	-1.839325299
C 	3.813608059	3.516310908	-1.349454135
C 	4.266869668	2.221412785	-1.016736613
H 	6.001599217	0.933399190	-0.931030819
H 	7.582151790	2.653675005	-1.820192498
F 	6.899849864	5.081902271	-2.478908233
H 	4.353409000	5.478969621	-2.096591424
H 	2.767876594	3.779625437	-1.218492650
B 	-1.056954613	1.488236744	-0.477453642
F 	-0.641935752	2.451958377	0.430489075
F 	-2.320738639	1.008041459	-0.270468859
F 	-0.760117510	1.810414097	-1.791381489
