20

H 	 -0.014108	 -2.021072	  1.036802
C 	 -1.089596	 -0.449081	  0.084151
C 	  0.019004	 -1.049786	  0.545858
C 	  1.384179	 -0.522460	  0.466771
H 	 -0.978903	  0.524643	 -0.393941
O 	  2.377005	 -1.043267	  0.880472
Br	  1.572147	  1.313960	 -0.458579
C 	 -3.346840	  0.056269	  0.949980
C 	 -2.501425	 -0.975396	  0.150362
C 	 -2.606019	 -2.361024	  0.816174
C 	 -3.039499	 -1.049994	 -1.306417
H 	 -2.463158	 -1.768068	 -1.900765
H 	 -4.397293	 -0.258310	  0.964721
H 	 -3.293293	  1.051421	  0.493395
H 	 -2.993883	  0.133392	  1.984598
H 	 -3.651458	 -2.689353	  0.829690
H 	 -2.249369	 -2.335812	  1.852522
H 	 -2.025286	 -3.113059	  0.269176
H 	 -4.088355	 -1.369980	 -1.298264
H 	 -2.983050	 -0.072571	 -1.799634
