20

H 	0.207947010	-1.711780510	0.675497400
C 	-0.856841170	-0.151136680	-0.306862750
C 	0.247487400	-0.746070070	0.174004060
C 	1.614624470	-0.219889100	0.106547180
H 	-0.743460710	0.815622980	-0.799118160
O 	2.606135370	-0.737817130	0.529956260
Br	1.803872660	1.609247920	-0.827583830
C 	-3.109444930	0.358627190	0.573388330
C 	-2.271453850	-0.675219330	-0.234068470
C 	-2.372944920	-2.061042940	0.432435270
C 	-2.823275070	-0.746902220	-1.686881840
H 	-2.246015300	-1.455446720	-2.292240380
H 	-4.158918620	0.039989610	0.604492210
H 	-3.066484720	1.351631390	0.110625530
H 	-2.742171530	0.442219830	1.602847640
H 	-3.418554730	-2.389525880	0.452271890
H 	-2.010375940	-2.035321560	1.467171460
H 	-1.795048580	-2.813484580	-0.117562090
H 	-3.868874330	-1.078870510	-1.669473330
H 	-2.783868180	0.234247880	-2.174532940
