22

C 	0.008558105	1.491176791	-0.000000000
C 	0.000000000	0.000000000	0.000000000
H 	-1.005165964	-0.350341586	0.248593227
C 	-1.096963102	2.397730817	-0.000000000
H 	0.973248418	1.995375127	-0.079973476
O 	-1.065517751	3.603877125	-0.033736972
C 	1.000632295	-0.583546213	1.021555724
H 	1.022681435	-1.675793846	0.938970343
H 	0.699111190	-0.314233680	2.039690951
H 	2.016698687	-0.206995498	0.860872559
Br	-2.953434121	1.482239806	0.094706572
C 	0.745146178	-1.120114334	-4.140805204
C 	-0.558345087	-1.100927331	-3.631194461
C 	-0.787388259	-0.738149646	-2.301765875
C 	0.285986703	-0.408903492	-1.457168645
C 	1.590396975	-0.416207821	-1.980401238
C 	1.818561919	-0.774656622	-3.311522233
H 	-1.398138204	-1.365690702	-4.270098378
H 	-1.801701126	-0.707073246	-1.911496196
H 	2.434456641	-0.151129972	-1.348416795
H 	2.834250444	-0.784086713	-3.701334840
H 	0.923314601	-1.397832840	-5.177284914
