22

C 	0.043464360	0.359827050	0.218989970
C 	0.945016610	-0.798715890	0.489167180
H 	0.414160490	-1.724481810	0.247542320
C 	-1.121152530	0.413279430	-0.609583440
H 	0.308170220	1.330500230	0.641979240
O 	-1.829132910	1.366842690	-0.832831980
C 	1.396244630	-0.843604050	1.968457720
H 	2.089433650	-1.678783550	2.119427160
H 	0.531876620	-0.980563810	2.628620160
H 	1.907883860	0.080846520	2.260199240
Br	-1.610795630	-1.388663680	-1.488600190
C 	4.301819820	-0.516631240	-2.268168200
C 	3.406574870	-1.589862330	-2.349650560
C 	2.320433440	-1.668299470	-1.472312520
C 	2.130409170	-0.687206870	-0.487401020
C 	3.027816460	0.393194400	-0.418049580
C 	4.107862800	0.476695760	-1.300621260
H 	3.552658980	-2.366010350	-3.098266580
H 	1.617636240	-2.495110860	-1.546796780
H 	2.889276200	1.169807320	0.331339460
H 	4.796368240	1.316745680	-1.234753790
H 	5.142732700	-0.452889930	-2.955601460
