27

H 	1.909398954	0.927723593	-0.155079356
C 	0.000000000	0.000000000	0.000000000
C 	1.371294703	0.000000000	-0.000000000
C 	2.214133330	-1.181766189	0.000000000
O 	3.424014950	-1.151716882	-0.385829719
H 	-0.540671180	-0.918415895	0.222881888
H 	0.301865149	0.081935017	-2.718490120
H 	-1.489211756	-0.307783153	-2.344141941
H 	-0.198494890	-1.650987600	-2.255085238
C 	-0.444658261	-0.596331105	-2.321542867
N 	1.708799547	-2.381506295	0.401209858
H 	2.346048932	-3.169181605	0.435180449
H 	0.845909652	-2.440287069	0.924868390
C 	-2.151692184	1.141962590	0.482259512
C 	-2.959339153	2.280168919	0.522644474
C 	-2.468930350	3.511887459	0.078053433
C 	-1.160377182	3.563112400	-0.402476071
C 	-0.329934154	2.452810390	-0.450401069
C 	-0.826301094	1.215884993	0.009317722
H 	-2.543918678	0.186891130	0.825334111
H 	-3.977561923	2.211352147	0.897640026
H 	-3.077063472	4.411934110	0.089141406
F 	-0.679325049	4.760490783	-0.855406013
H 	0.667292505	2.549174904	-0.870279239
Zn	4.368740965	0.181892614	-1.630188144
Cl	6.489582261	-0.089106419	-1.431377006
Cl	2.889584286	1.353660850	-2.725581630
