27

H 	1.522654390	2.320016400	-0.320612180
C 	3.359009430	1.218552150	-0.250250930
C 	2.008999840	1.384107760	-0.059021400
C 	1.104151750	0.412203900	0.533681770
O 	-0.156589700	0.569688220	0.518814980
H 	3.798938070	0.229452390	-0.122130300
H 	4.161568380	2.777082270	1.819896160
H 	5.255631320	1.275149920	1.762445740
H 	3.585438680	1.186413230	2.589626460
C 	4.273415890	1.704893080	1.929333400
N 	1.595211830	-0.706577810	1.133205550
H 	0.936966870	-1.372078000	1.521991140
H 	2.585177380	-0.859717350	1.265972060
C 	5.521112530	1.763704020	-1.338551100
C 	6.370068260	2.624451830	-2.037418930
C 	5.941288880	3.908213620	-2.390306020
C 	4.650674070	4.295042060	-2.025273880
C 	3.782493160	3.462710680	-1.330237160
C 	4.219675680	2.167565950	-0.978322040
H 	5.864508590	0.766580320	-1.069006670
H 	7.370742530	2.297412980	-2.310714150
H 	6.580837740	4.598222490	-2.933793450
F 	4.223711830	5.550463870	-2.369234020
H 	2.789367570	3.825467340	-1.078767110
Zn	-1.301183610	1.971953730	-0.479063440
Cl	-2.992396520	0.925851660	-1.297840370
Cl	-0.385413140	3.945410820	-0.351204040
