28

H 	 -1.615646	 -1.416751	 -0.022279
C 	  0.000000	  0.000000	  0.000000
C 	 -1.316929	 -0.374347	  0.000000
C 	 -2.338409	  0.619333	  0.000000
O 	 -3.585261	  0.425218	 -0.041948
H 	  0.225101	  1.066693	  0.068188
H 	  1.085748	  0.173694	 -2.851281
H 	 -0.273233	  1.402033	 -2.503012
H 	 -0.698302	 -0.386239	 -2.813091
C 	  0.048084	  0.372763	 -2.613765
H 	 -2.022642	  1.673489	  0.041558
C 	  1.246508	 -1.070517	  1.805176
C 	  1.169186	 -0.927747	  0.247776
C 	  2.492549	 -0.302176	 -0.247700
C 	  0.969188	 -2.323330	 -0.381422
H 	  0.853598	 -2.251179	 -1.468092
H 	  2.101126	 -1.707068	  2.063199
H 	  0.333541	 -1.526421	  2.200671
H 	  1.386054	 -0.096522	  2.288592
H 	  3.342785	 -0.893995	  0.109426
H 	  2.613057	  0.721494	  0.127781
H 	  2.539888	 -0.273420	 -1.340172
H 	  1.843082	 -2.950016	 -0.170658
H 	  0.089588	 -2.833256	  0.024238
B 	 -4.272325	 -1.112241	 -0.181975
F 	 -3.840012	 -1.789382	  0.947352
F 	 -3.737198	 -1.612107	 -1.361489
F 	 -5.609320	 -0.841707	 -0.222077
