28

H 	0.426469790	-1.743507420	-0.282216880
C 	-0.843946010	-0.004696400	-0.176763630
C 	0.359434660	-0.657718340	-0.273387720
C 	1.582975920	0.072423830	-0.312673940
O 	2.707042010	-0.497313590	-0.371379360
H 	-0.832845160	1.084480450	-0.250144800
H 	-0.958772850	-0.412494670	2.675904110
H 	-1.445912880	1.364130670	2.360556740
H 	0.348518110	0.859017620	2.299926680
C 	-0.698413680	0.579756700	2.326006450
H 	1.554389660	1.171844440	-0.279992100
C 	-2.499879400	-0.591567000	-1.879467140
C 	-2.206528660	-0.649072210	-0.343538530
C 	-3.304609100	0.158616550	0.389115500
C 	-2.239258910	-2.120726480	0.125477250
H 	-1.971640570	-2.206214830	1.185043830
H 	-3.490008310	-1.022861480	-2.071404650
H 	-1.752888020	-1.160271670	-2.443071960
H 	-2.499319110	0.441677100	-2.246520430
H 	-4.294275440	-0.209857810	0.095154830
H 	-3.251678480	1.224524510	0.135015140
H 	-3.217513350	0.057443880	1.475185950
H 	-3.251000470	-2.522633750	-0.002589950
H 	-1.557531310	-2.751917590	-0.454705330
B 	4.142191300	0.402288650	-0.300317430
F 	3.738778180	1.732778420	-0.352461470
F 	4.831128040	-0.028895280	-1.406061320
F 	4.659011020	0.020768610	0.917259280
