28

H 	1.576537298	2.481432304	-0.310708618
C 	3.312938393	1.219773426	-0.416157713
C 	1.979053683	1.476448318	-0.244966048
C 	1.083058835	0.410295383	0.057248510
O 	-0.156085530	0.501541924	0.281466694
H 	3.638711983	0.177805148	-0.379732280
H 	4.836644517	1.562207678	2.210604467
H 	3.580931758	0.184645001	2.260054007
H 	3.018049269	1.956315602	2.398239627
C 	3.802429726	1.242574991	2.178627872
H 	1.500624910	-0.607663207	0.102850944
C 	4.144006686	2.114213633	-2.529863552
C 	4.323015975	2.196949491	-0.976490898
C 	5.766552867	1.766450912	-0.631530030
C 	4.072675824	3.647983895	-0.512409733
H 	4.134074054	3.727525762	0.578150443
H 	4.874984932	2.776144573	-3.009094643
H 	3.137250749	2.427256899	-2.823496882
H 	4.311874943	1.094973783	-2.897017860
H 	6.482814597	2.369295927	-1.200948865
H 	5.937687020	0.712582387	-0.883488220
H 	5.984184162	1.903489372	0.431682203
H 	4.830920947	4.308815663	-0.947395819
H 	3.091296724	4.015599566	-0.828691687
B 	-0.975371323	1.978638424	0.330489894
F 	-0.797569658	2.515910805	-0.934625562
F 	-0.322330185	2.690969091	1.327286894
F 	-2.253168566	1.604087520	0.629314631
