29

H 	  1.832090	 -1.284202	 -0.055157
C 	  0.000000	  0.000000	  0.000000
C 	  0.743970	 -1.289918	 -0.000000
C 	  0.129442	 -2.581370	 -0.000000
O 	  0.760207	 -3.649337	 -0.038889
H 	 -1.070995	 -0.237205	  0.057320
H 	 -0.349036	  1.617111	 -1.446055
H 	 -0.084866	  0.035546	 -2.178647
C 	  0.232519	  0.695570	 -1.365937
H 	  1.286069	  0.935671	 -1.531339
H 	 -0.983393	 -2.594370	  0.036719
C 	 -0.009710	  0.087892	  2.540068
C 	  0.297824	  0.907143	  1.268127
C 	 -0.636429	  2.134418	  1.250165
C 	  1.761457	  1.387125	  1.319880
H 	  2.025648	  2.003611	  0.456383
H 	  0.119915	  0.707214	  3.433327
H 	  0.652455	 -0.777133	  2.639313
H 	 -1.041665	 -0.279465	  2.540632
H 	 -0.525655	  2.701524	  2.180254
H 	 -1.688035	  1.838274	  1.169946
H 	 -0.414019	  2.819762	  0.428322
H 	  1.920140	  1.999202	  2.213756
H 	  2.468559	  0.554263	  1.371734
Sn	 -0.268237	 -7.472088	  0.657081
Cl	 -0.818510	 -9.705497	  1.013464
Cl	 -1.031985	 -6.257943	  2.481846
Cl	  2.032805	 -7.326945	  0.461217
Cl	 -1.334335	 -6.790856	 -1.286898
