29

H 	-0.623171292	-2.449832193	0.317473721
C 	-1.120206817	-0.358097872	0.939064802
C 	-0.241271909	-1.432825189	0.400719126
C 	1.128838731	-1.252405074	0.032292021
O 	1.862135007	-2.165069915	-0.379106123
H 	-0.539217365	0.574122016	0.938289909
H 	-2.025887328	0.108573633	2.885833586
H 	-0.508579149	-0.783084726	2.988520147
C 	-1.438536098	-0.686584040	2.420425641
H 	-1.985417005	-1.627314712	2.524925202
H 	1.531311721	-0.219092246	0.133276782
C 	-1.909145343	0.276629983	-1.392128362
C 	-2.390947763	-0.061893415	0.035054990
C 	-3.140513452	1.165667406	0.592372179
C 	-3.360086964	-1.258418059	-0.031136969
H 	-3.760790097	-1.521349978	0.951605814
H 	-2.757857658	0.553462922	-2.025631778
H 	-1.406498161	-0.571558678	-1.865944212
H 	-1.210523460	1.120315294	-1.389907736
H 	-3.946347190	1.452943565	-0.091038879
H 	-2.475421790	2.029824191	0.696768422
H 	-3.599103476	0.971845083	1.565365323
H 	-4.213005976	-1.010471066	-0.671359004
H 	-2.888919480	-2.149670439	-0.455413411
Sn	5.436961589	-2.197498877	-2.216239549
Cl	7.521409904	-2.275054832	-3.249190740
Cl	4.119417191	-0.696644050	-3.398921659
Cl	4.533308483	-4.326923689	-2.272683898
Cl	5.762153418	-1.466427351	-0.039204733
