29

H 	-1.083753340	-2.758854152	0.286663316
C 	-0.992041093	-0.567483000	0.749390150
C 	-0.470976064	-1.860978572	0.212831437
C 	0.844762329	-2.034017288	-0.326674797
O 	1.319952187	-3.116034562	-0.712691958
H 	-0.228450126	0.199619095	0.561042905
H 	-1.411156066	0.256373533	2.743106884
H 	-0.156140129	-0.981013445	2.724122071
C 	-1.119565276	-0.695171650	2.291835817
H 	-1.849776145	-1.454822112	2.583739923
H 	1.456739452	-1.106996528	-0.382948096
C 	-1.983194067	0.142709913	-1.480372159
C 	-2.302514064	-0.042703731	0.018907693
C 	-2.706056614	1.331991953	0.594518503
C 	-3.489662366	-1.015255734	0.167048971
H 	-3.769701637	-1.169528715	1.213051941
H 	-2.851862280	0.550037606	-2.008044356
H 	-1.717164036	-0.802910811	-1.961885047
H 	-1.151248056	0.840050293	-1.627947102
H 	-3.519781521	1.758943851	-0.001302591
H 	-1.873139871	2.043115193	0.567875102
H 	-3.064607117	1.267945491	1.625153673
H 	-4.368588505	-0.609908108	-0.345230725
H 	-3.281383223	-1.992751980	-0.277152715
Sn	5.201965197	-1.712066927	-1.852566366
Cl	7.288051953	-0.902933577	-2.485535342
Cl	3.605131078	-0.732113240	-3.223887933
Cl	5.191148312	-4.014258499	-2.061641861
Cl	4.837099346	-1.077816587	0.352673301
