30

H 	2.002052161	0.957062397	0.073358766
C 	0.000000000	0.000000000	0.000000000
C 	1.495791234	0.000000000	0.000000000
C 	2.317124883	-1.167351790	0.000000000
O 	3.585083150	-1.097954215	0.078721700
H 	-0.363062099	-0.810938998	-0.646868206
H 	-1.669295147	1.309090114	-0.501985265
H 	-0.235111486	1.538603274	-1.533047074
C 	-0.574710000	1.337867046	-0.510558324
H 	-0.250189393	2.167201709	0.128025256
C 	1.707767715	-2.548260769	-0.094081473
H 	1.103471722	-2.642095801	-1.005556677
H 	1.042045217	-2.726453049	0.759246245
H 	2.502281492	-3.296581959	-0.104222752
C 	0.016502965	0.397474504	2.525476278
C 	-0.410733122	0.108128440	3.822365339
C 	-1.326799661	-0.924676363	4.004697584
C 	-1.826047463	-1.674103224	2.941272198
C 	-1.382769468	-1.373695788	1.650467557
C 	-0.470154666	-0.331941544	1.425216455
H 	0.741892925	1.192373735	2.375398005
H 	-0.040285117	0.663073436	4.679606344
F 	-1.751139049	-1.216494811	5.270880568
H 	-2.542559062	-2.469303889	3.128064505
H 	-1.761124674	-1.951236466	0.809490710
Sn	5.081347383	0.713137324	0.338032422
Cl	3.811243719	1.125342007	2.325291786
Cl	4.147003777	1.435362797	-1.738571904
Cl	6.622535529	2.522794252	0.607184312
Cl	6.621843197	-1.074756244	0.345741989
