30

H 	1.848311230	2.252625560	0.935623920
C 	3.614591690	1.128858670	0.194568720
C 	2.148886160	1.369516400	0.380269770
C 	1.104419040	0.564794380	-0.168418830
O 	-0.125052930	0.832397470	0.025525790
H 	3.802239010	0.046600870	0.161923740
H 	5.506807530	1.546578400	1.198669050
H 	4.135810970	1.304273500	2.310929390
C 	4.439304650	1.738926910	1.351153440
H 	4.290869850	2.823760310	1.402881520
C 	1.424407920	-0.653972950	-1.005925230
H 	2.048948330	-1.357536740	-0.439693110
H 	1.991612660	-0.360009940	-1.898511500
H 	0.496822440	-1.147350900	-1.302976720
C 	3.742803300	3.011100420	-1.543032410
C 	4.164932900	3.528484890	-2.770976290
C 	4.883631800	2.701066440	-3.632056970
C 	5.184994250	1.378814760	-3.309861900
C 	4.748523950	0.876017680	-2.079735960
C 	4.040010580	1.684891260	-1.177085830
H 	3.173868600	3.648664610	-0.870660920
H 	3.941598040	4.551579400	-3.061119400
F 	5.307996830	3.200412790	-4.835669820
H 	5.750185380	0.765575250	-4.006699650
H 	4.980195430	-0.153936030	-1.814606150
Sn	-1.226352530	2.558084470	1.210124910
Cl	0.000504120	4.002555050	-0.256034170
Cl	-0.052662170	1.631635920	3.075879210
Cl	-2.370834580	4.282258690	2.412436770
Cl	-3.102743950	1.415983050	0.341946100
