24

H 	-0.62056100	-0.03764700	-0.08023700
C 	-0.09659500	-2.02948000	-0.54883400
C 	0.18266500	-0.75219600	-0.26512300
C 	1.55928900	-0.22014000	-0.18291400
O 	1.86635700	0.93365900	0.07180500
H 	0.69695300	-2.74612400	-0.73626600
C 	-1.53512400	-3.98169500	-1.12156800
C 	-1.54987500	-2.53359000	-0.62266100
C 	-2.32371800	-1.63885500	-1.59566900
C 	-2.16109000	-2.45555100	0.77964400
H 	-2.14765700	-1.42687900	1.14160000
H 	-2.55099100	-4.37493100	-1.18722100
H 	-0.96277900	-4.61120100	-0.43929100
H 	-1.07715100	-4.03683800	-2.10978900
H 	-3.36175500	-1.96622600	-1.67465100
H 	-1.87118000	-1.67785200	-2.58715700
H 	-2.31140600	-0.60455400	-1.25008200
H 	-3.19455500	-2.80588300	0.76744000
H 	-1.59305900	-3.07454000	1.47502300
H 	2.32514100	-0.94333400	-0.37095900
Sn	1.85103100	2.46611000	0.80757500
Cl	0.20071500	1.71760200	2.33218100
Cl	0.15272700	3.16663100	-0.68683800
Cl	3.50134600	3.21461900	-0.71703200
