24

H 	-0.74335300	-0.30304000	-0.69594900
C 	-0.36864400	-2.36759200	-0.27068800
C 	-0.02846900	-1.07458200	-0.42086700
C 	1.35601700	-0.63139900	-0.21682500
O 	1.74380600	0.51977400	-0.33500000
H 	0.43206500	-3.05796700	0.00872400
C 	-1.57852100	-4.12230300	-1.51910300
C 	-1.71770900	-3.02680500	-0.43143300
C 	-2.82979700	-2.04173500	-0.82858100
C 	-2.07435800	-3.69870500	0.91971400
H 	-2.18304000	-2.95421400	1.71415600
H 	-2.52137200	-4.66801100	-1.62837500
H 	-0.79979400	-4.84709500	-1.26085700
H 	-1.32456300	-3.68538700	-2.48968100
H 	-3.78106100	-2.57193100	-0.93391600
H 	-2.61503200	-1.55487800	-1.78455900
H 	-2.96785000	-1.26239000	-0.07334500
H 	-3.02002800	-4.24360700	0.83232100
H 	-1.30376000	-4.41232000	1.22844400
H 	2.07014700	-1.44321800	0.06563300
Sn	2.55158800	4.52104300	0.31772200
Cl	3.01460700	6.78851300	0.57288800
Cl	1.07442100	4.29433600	-1.45270900
Cl	4.54785900	3.42551300	-0.10876500
