62

C 	-5.014186499	0.139743784	5.252527520
C 	-2.826490651	-0.471893930	4.105568652
C 	-1.519444599	-2.827439501	4.725896302
O 	0.456495405	-3.543152300	3.757969759
H 	-0.794040084	-0.149483602	-4.880559043
H 	-5.738109217	-1.196009501	6.653410875
H 	-1.942095559	0.724907762	2.690456262
C 	-2.882591477	-4.940155334	-4.364351585
H 	-2.844906899	-6.978716800	-4.020321614
H 	-4.737583285	-4.490710711	-5.165548287
H 	-2.758198779	-3.977258586	-2.538380346
H 	4.554359602	-7.649092725	-4.126527516
H 	1.405541512	-8.365845130	-3.280610620
H 	2.373472791	-8.560137384	-6.474624670
H 	10.507799374	1.038708749	2.795847665
H 	8.277912925	-1.070025427	4.133443604
H 	9.965883307	-1.962215703	1.393908303
N 	5.101215330	-1.106245208	-0.027105171
C 	4.583245185	-1.764299355	-2.503482844
N 	2.460979643	-3.276177978	-2.769222256
C 	7.025086982	0.766002292	0.618714840
H 	3.839201395	-1.586504083	1.323044566
C 	1.945453753	-4.663804995	-5.100043341
H 	1.739970638	-4.013337739	-1.164043763
H 	7.920267580	1.221347667	-1.183808743
C 	2.584654133	-7.476347849	-4.730244956
C 	9.059469896	-0.370359285	2.351128399
H 	6.120432864	5.116978569	-1.948040304
H 	3.285414943	-3.893076589	-6.470135413
C 	5.837737168	3.200290915	1.632001664
C 	5.015322213	3.446715655	4.138884207
C 	3.892408998	5.676127012	4.989249439
C 	3.573482741	7.715844285	3.348523457
C 	4.385169799	7.500401431	0.849105054
C 	5.502125842	5.265584049	0.006366178
H 	5.250502603	1.892837190	5.461314364
H 	3.278973307	5.823711678	6.946533873
H 	2.712113431	9.459316860	4.014537390
H 	4.155558274	9.077478133	-0.449905401
C 	-0.767834192	-4.087451375	-6.179038102
C 	-1.105986895	-5.439778273	-8.741566937
H 	-2.870883723	-4.837709909	-9.638884530
H 	-1.191542002	-7.494752672	-8.546965439
H 	0.437472855	-4.985078659	-10.044399623
C 	-1.008922179	-1.217219179	-6.634183481
H 	0.431925204	-0.542845560	-7.956024920
H 	-2.864202708	-0.768758818	-7.434785297
C 	-6.872157857	3.792460375	7.475831625
C 	-6.654227454	2.442100806	4.884206046
C 	-9.309506075	1.511312902	4.066020992
C 	-5.606477079	4.289535489	2.900849349
H 	-5.456764221	3.405817104	1.037933572
H 	-8.145081759	5.416148253	7.324549732
H 	-5.029962172	4.478601289	8.116509106
H 	-7.626615906	2.529085948	8.929921546
H 	-10.599861838	3.118087486	3.884737381
H 	-10.116235605	0.203526958	5.451132098
H 	-9.231246857	0.542446711	2.241083675
H 	-6.865957648	5.918778565	2.717229942
H 	-3.738149803	5.000157767	3.426511917
H 	-2.458588153	-4.008489715	6.197823978
O 	5.881575383	-1.062055536	-4.302266061
