34

H 	1.920171231	0.902391697	-0.262286600
C 	0.000000000	0.000000000	0.000000000
C 	1.374529288	0.000000000	0.000000000
C 	2.204560451	-1.206106037	0.000000000
O 	3.146821944	-1.318417565	-0.855013935
H 	-0.522707548	-0.903745440	0.307048260
H 	-0.211218387	0.254108429	-2.681423835
H 	-1.573666371	-0.840666977	-2.061746054
H 	0.128199551	-1.542602859	-2.353210385
C 	-0.512325980	-0.677507065	-2.216391599
N 	1.980862858	-2.230801289	0.862143283
C 	1.201793244	-2.105192133	2.100031753
C 	2.721029922	-3.491543111	0.699252448
H 	0.923541100	-1.064801915	2.264682673
H 	1.814885214	-2.447466205	2.943366427
H 	0.296353278	-2.724553319	2.056923511
H 	2.061695714	-4.321920420	0.974233421
H 	3.606408721	-3.509873924	1.349181179
H 	3.039831730	-3.593014600	-0.337988347
O 	-4.263638793	2.275681055	0.899113615
H 	-4.487309784	1.375022091	1.192824194
C 	-2.960781829	2.294490468	0.438663292
C 	-2.464098037	3.514732698	-0.037325084
C 	-1.153014950	3.576407965	-0.517396856
C 	-0.330911813	2.448366429	-0.522340549
C 	-0.823098830	1.222996573	-0.034290899
C 	-2.148851834	1.155817658	0.434420493
H 	-3.109824048	4.388860744	-0.035145094
H 	-0.770659409	4.519417449	-0.901217557
H 	-2.543561392	0.207631683	0.801425167
H 	0.674674460	2.515194123	-0.927570211
Zn	3.085304612	-0.379227450	-2.675891572
Cl	2.725198132	-1.949513067	-4.117039536
Cl	3.255663422	1.778627444	-2.507746706
