34

H 	1.415409780	2.103741900	-0.897098880
C 	3.268866090	1.087824630	-0.639442740
C 	1.896037600	1.162897350	-0.647897790
C 	0.999724590	0.194688400	-0.020393760
O 	0.003969920	0.594791050	0.675400900
H 	3.746025700	0.136112530	-0.415210300
H 	3.208097510	2.572392270	1.628699160
H 	4.818190290	1.630660350	1.564261760
H 	3.260657070	0.779560250	2.129055840
C 	3.736375700	1.625637290	1.642850240
N 	1.203735900	-1.148229100	-0.117598610
C 	2.039754180	-1.784434590	-1.144515410
C 	0.372673750	-2.066544700	0.680695730
H 	2.341387390	-1.051100770	-1.892604470
H 	1.455683910	-2.572936530	-1.635590040
H 	2.933007690	-2.243387140	-0.699612200
H 	0.989133820	-2.920214310	0.984356120
H 	-0.477781930	-2.433118590	0.089213880
H 	-0.009269640	-1.544809260	1.557965400
O 	7.653406610	2.373988220	-2.471124990
H 	7.825081810	1.435723030	-2.274776050
C 	6.353850880	2.685001330	-2.114036980
C 	5.931034830	4.004460200	-2.326666950
C 	4.627863750	4.367402680	-1.976876340
C 	3.741438850	3.439270330	-1.427207920
C 	4.158938100	2.110625680	-1.218568450
C 	5.477869690	1.746750850	-1.557839250
H 	6.627486880	4.723357850	-2.751222130
H 	4.303034640	5.395000290	-2.126347630
H 	5.816308440	0.723518970	-1.387482810
H 	2.747239110	3.754579360	-1.125980760
Zn	-0.447276890	2.343612710	1.605343900
Cl	-1.940745820	1.846477180	3.080862000
Cl	0.720988550	4.051497380	0.916234970
