34

H 	1.356643981	2.043969654	-1.014966520
C 	3.220515870	1.096117253	-0.570309350
C 	1.851444825	1.133888058	-0.686707814
C 	0.940345141	0.155660287	-0.089538407
O 	-0.053122425	0.564687045	0.601286270
H 	3.694844048	0.160604448	-0.280333133
H 	3.300984359	2.795105508	1.528781361
H 	4.615575011	1.503793749	1.736539903
H 	2.855315193	1.130353308	2.222380067
C 	3.561344428	1.754533788	1.684509714
N 	1.138963665	-1.181278635	-0.217901231
C 	1.991905210	-1.788093434	-1.247154118
C 	0.304577992	-2.116571449	0.552084841
H 	2.350894035	-1.023974242	-1.935772205
H 	1.403755045	-2.525167777	-1.808445018
H 	2.848052394	-2.303010886	-0.792005627
H 	0.918356055	-2.977079514	0.839600001
H 	-0.542770879	-2.469547876	-0.051277839
H 	-0.077183962	-1.614156653	1.440699890
O 	7.675923591	2.366792813	-2.213620329
H 	7.851883973	1.449489712	-1.939623703
C 	6.354195592	2.674733965	-1.952829404
C 	5.918621350	3.966336478	-2.275767251
C 	4.590617574	4.321012813	-2.023136543
C 	3.692602597	3.410112926	-1.464400283
C 	4.124003556	2.107658545	-1.148999579
C 	5.465608328	1.754340366	-1.387929076
H 	6.623046665	4.672881263	-2.706633956
H 	4.254602086	5.328028865	-2.259342472
H 	5.812640509	0.752057120	-1.133878553
H 	2.673365010	3.718974435	-1.250764887
Zn	-0.026443982	2.356956664	1.595527535
Cl	0.143019869	1.846665515	3.689152620
Cl	-0.035927954	4.058922978	0.247620535
