27

H 	0.624140642	-1.596635438	-0.185348387
C 	-0.647606979	0.003248347	0.660794151
C 	0.094797661	-0.705817173	-0.525660893
C 	1.015489664	0.240388338	-1.217840447
O 	2.235692110	0.126444023	-1.367399501
H 	-1.162619200	0.882384006	0.248356974
H 	-0.663161090	-1.006597086	-1.265773701
H 	0.930034368	-0.349086595	2.141376946
C 	0.347036888	0.484304737	1.737473909
H 	1.058520324	1.211086738	1.326325126
H 	-0.193648959	0.961608530	2.561491833
H 	0.550581779	1.158076563	-1.628581200
C 	-3.706696168	-2.630150138	2.256101224
C 	-4.063933837	-1.438365452	1.618421323
C 	-3.072516360	-0.594573947	1.105261119
C 	-1.714757538	-0.924202225	1.223830237
C 	-1.366898271	-2.124030689	1.866442783
C 	-2.354262079	-2.970352068	2.377797286
H 	-5.112140007	-1.163935845	1.519898282
H 	-3.356911096	0.333114684	0.610235318
H 	-0.320232851	-2.402408663	1.970225931
H 	-2.067355962	-3.896121189	2.872072790
H 	-4.474489925	-3.289146848	2.655260672
B 	3.263273237	-1.331789883	-0.769132062
F 	2.683379466	-2.354052006	-1.459789340
F 	3.011457137	-1.296274653	0.573261060
F 	4.481057315	-0.916028069	-1.176013642
