16
C4H7BF3O optimized with ADF in AMS.
H        0.18139642994342      -1.68591291114941       0.22883881714818
C       -0.78198034803876       0.18511241166631       0.94111984849436
C        0.28979484811624      -0.60153178276418       0.28544932877999
C        1.47859317589720      -0.04164485947182      -0.29100972058410
O        1.75624831668673       1.16687841792485      -0.29842730903866
H       -0.51862657937959       1.24608969844184       0.92666582341679
H       -1.38642177537131      -1.33107473834914       2.40978435535866
C       -1.09250166816681      -0.27663590776949       2.37892294993592
H       -0.22094313974523      -0.14734240366628       3.02776650341109
H       -1.91450382863432       0.31565233021562       2.79280436388218
H       -1.70126957120770       0.07438256082552       0.34178007073839
H        2.17540895619829      -0.77338413258944      -0.75430292251218
B        1.86588535407061       4.32282724094002      -0.11694088069776
F        1.33473534804005       4.22495055816634       1.09416588461524
F        1.07802550661320       4.40633432167195      -1.17929465615344
F        3.17987148497796       4.41211942590733      -0.25701851679464
