21

H 	1.947103197	0.916587365	0.019323683
C 	0.000000000	0.000000000	0.000000000
C 	1.362485686	0.000000000	-0.000000000
C 	2.086393864	-1.237332263	-0.000000000
O 	3.332822124	-1.361881009	-0.007163118
H 	-0.507812552	-0.967958004	-0.015964255
C 	-2.627683623	3.357661775	0.039914450
C 	-1.241666576	3.565486286	0.111614448
C 	-0.367840961	2.483483052	0.099596399
C 	-0.868302826	1.161532409	0.016856588
C 	-2.267457799	0.969351491	-0.049132021
C 	-3.138797722	2.057034660	-0.040439012
H 	-0.846999873	4.576502017	0.178340921
H 	0.702874968	2.658024170	0.161467840
H 	-2.661224881	-0.043521923	-0.109720084
H 	-4.212549002	1.894291609	-0.094205078
H 	-3.304957150	4.208670473	0.049208503
H 	1.488325911	-2.169012287	0.009148778
Zn	4.879298211	0.075967276	-0.095550620
Cl	4.170139869	1.993997832	0.631608060
Cl	6.571257211	-0.958975268	-0.904760294
