21

H 	  1.947103	  0.916587	  0.019324
C 	  0.000000	  0.000000	  0.000000
C 	  1.362486	  0.000000	 -0.000000
C 	  2.086394	 -1.237332	 -0.000000
O 	  3.332822	 -1.361881	 -0.007163
H 	 -0.507813	 -0.967958	 -0.015964
C 	 -2.627684	  3.357662	  0.039914
C 	 -1.241667	  3.565486	  0.111614
C 	 -0.367841	  2.483483	  0.099596
C 	 -0.868303	  1.161532	  0.016857
C 	 -2.267458	  0.969351	 -0.049132
C 	 -3.138798	  2.057035	 -0.040439
H 	 -0.847000	  4.576502	  0.178341
H 	  0.702875	  2.658024	  0.161468
H 	 -2.661225	 -0.043522	 -0.109720
H 	 -4.212549	  1.894292	 -0.094205
H 	 -3.304957	  4.208670	  0.049209
H 	  1.488326	 -2.169012	  0.009149
Zn	  4.879298	  0.075967	 -0.095551
Cl	  4.170140	  1.993998	  0.631608
Cl	  6.571257	 -0.958975	 -0.904760
