33

H 	2.557877610	0.263747840	1.208136690
C 	4.195299420	-0.287734540	-0.018735680
C 	2.984826420	-0.468697550	0.527870120
C 	2.010946560	-1.491135950	0.094716600
O 	0.810081280	-1.138140970	-0.129835510
H 	4.553189810	-0.998210530	-0.767762340
C 	4.590505830	1.859891850	1.284846940
C 	5.130449850	0.875855860	0.227768360
C 	5.313308810	1.614811890	-1.128306170
C 	6.499259450	0.303255110	0.689703820
H 	6.903837960	-0.402052500	-0.047466750
H 	5.305661090	2.678073520	1.429359480
H 	4.442304710	1.367134790	2.253438570
H 	3.636476560	2.299086520	0.971516710
H 	6.021968440	2.443665990	-1.008964810
H 	4.357749010	2.018404940	-1.480579230
H 	5.705948690	0.938796750	-1.898154600
H 	7.224037910	1.117556260	0.812074900
H 	6.403219400	-0.217496970	1.650224400
N 	2.350950190	-2.788414860	-0.084068520
C 	1.368153040	-3.732517220	-0.647190980
C 	3.619835460	-3.385138770	0.357528270
H 	0.531287660	-3.176618790	-1.068200490
H 	0.999963040	-4.403836590	0.139426050
H 	1.856730720	-4.330596700	-1.425316690
H 	4.259514990	-3.623395970	-0.502282570
H 	3.399763300	-4.315225300	0.895113690
H 	4.148033530	-2.701675160	1.021310860
Ti	-0.361658410	0.611598540	-0.337046480
Cl	-1.582114660	2.495511690	-0.535087810
Cl	-0.029337490	0.872713880	1.892796550
Cl	1.222483310	1.285568530	-1.808798030
Cl	-1.968701650	-0.784397800	-1.052519920
