33

H 	2.570469000	0.251284318	1.231845059
C 	4.193185949	-0.282730190	-0.020714249
C 	2.991114722	-0.472305196	0.539411365
C 	2.015831871	-1.489158061	0.103154553
O 	0.817798762	-1.131852731	-0.122427488
H 	4.541708398	-0.984213232	-0.782125867
C 	4.599603803	1.848485565	1.302110309
C 	5.129357115	0.877329570	0.229735127
C 	5.301923202	1.631313655	-1.118141901
C 	6.500667444	0.299241053	0.672772289
H 	6.895750998	-0.401353621	-0.073307685
H 	5.315564417	2.664678970	1.449829789
H 	4.460317950	1.344781356	2.265962854
H 	3.642989801	2.290268918	1.002827167
H 	6.009350552	2.459920310	-0.993526116
H 	4.344206265	2.036205563	-1.461104494
H 	5.691966622	0.964654156	-1.896988320
H 	7.228488860	1.110287956	0.794388395
H 	6.413237996	-0.229051540	1.629738297
N 	2.351173226	-2.786328984	-0.077738760
C 	1.367087839	-3.725615733	-0.641989886
C 	3.616244539	-3.387825974	0.361958206
H 	0.532882517	-3.167830739	-1.064971119
H 	0.994669220	-4.396212133	0.142942643
H 	1.854769682	-4.325116628	-1.419006352
H 	4.250528361	-3.635032585	-0.498852812
H 	3.393231801	-4.313403690	0.905522491
H 	4.151349809	-2.704341896	1.019384171
Ti	-0.359261717	0.609069365	-0.356007761
Cl	-1.588209768	2.481921090	-0.586260433
Cl	-0.019965505	0.911686749	1.865459031
Cl	1.215145457	1.257245486	-1.846675320
Cl	-1.961327350	-0.805613355	-1.041687754
