27

H 	1.919906987	-0.967657073	1.346138400
C 	0.185670207	-0.099371681	0.430615633
C 	1.516287160	-0.070585265	0.884942141
C 	2.380668330	1.034122309	0.756313856
O 	3.606562905	1.008062452	1.152886200
H 	-0.295760487	0.805521242	0.068086057
H 	-0.295335112	-0.529534071	-2.131107687
H 	1.436153594	0.112323709	-1.990586460
H 	1.067845189	-1.634138074	-1.527065993
C 	0.699024408	-0.629088502	-1.703494687
C 	1.516734906	3.334267670	1.333236909
C 	1.936809585	2.369917336	0.198173304
H 	0.654364292	2.941702078	1.884696591
H 	2.341746618	3.468981418	2.039869931
H 	1.247690499	4.312827932	0.920507259
H 	1.113605956	2.247503811	-0.514403580
H 	2.788453333	2.792168386	-0.346654081
C 	-2.018204870	-1.214142455	0.266816309
H 	-1.996801697	-1.736349354	-0.701825877
H 	-2.652161544	-1.777374415	0.957489550
H 	-2.462564797	-0.224042221	0.119816352
N 	-0.685579360	-1.063967129	0.844497947
H 	-0.273537097	-1.896685241	1.256373606
B 	4.343070093	-0.279061262	1.791509652
F 	3.633743615	-0.604912530	2.952474174
F 	4.260124582	-1.290696331	0.827366045
F 	5.625654954	0.156075761	2.029424388
