18

C 	-4.246959816	-0.288657140	0.002905246
C 	-1.918720325	-1.234694856	0.002326423
C 	0.342852614	0.391034451	-0.000964686
O 	2.467881351	-0.411682600	0.001078127
H 	-4.591739648	1.729336413	-0.003243110
H 	-1.570004514	-3.256130261	0.001830786
C 	-10.921657700	-5.057232860	-0.020300345
C 	-9.857569076	-4.281535265	2.275317181
C 	-7.704191707	-2.743107130	2.282803728
C 	-6.614902981	-1.980376608	-0.005327270
C 	-7.678991605	-2.756074203	-2.300944797
C 	-9.832368974	-4.294502320	-2.308431344
H 	-10.691121941	-4.865197059	4.026256188
H 	-6.889922648	-2.149522592	4.039471629
H 	-6.845438759	-2.172412410	-4.051883803
H 	-10.646638033	-4.888086877	-4.065099244
H 	-12.569479643	-6.234479210	-0.026029258
H 	-0.060848085	2.372331261	-0.000073095
