18

C 	-3.999582054	-1.001462857	0.655244845
C 	-2.048928413	-0.774532634	-0.982966738
C 	0.221123727	0.651547067	-0.302784121
O 	2.052784435	0.939811008	-1.676397763
H 	-3.774549628	-0.075526262	2.485614825
H 	-2.053084520	-1.618748475	-2.856414248
C 	-11.076553008	-4.837094921	-0.088636364
C 	-10.451299973	-3.569103923	2.136487400
C 	-8.138250685	-2.332061981	2.338446809
C 	-6.392371696	-2.330275616	0.327265088
C 	-7.060300258	-3.621393453	-1.906402692
C 	-9.370042360	-4.854550489	-2.106570410
H 	-11.765720505	-3.543497966	3.715634985
H 	-7.662437630	-1.347653353	4.079037480
H 	-5.767346217	-3.659842000	-3.498670526
H 	-9.849263124	-5.838482743	-3.845831541
H 	-12.881035767	-5.805669580	-0.255429737
H 	0.187036147	1.497548895	1.632065082
