29

H 	1.923697938	0.932558916	-0.121681309
C 	0.000000000	0.000000000	0.000000000
C 	1.377016602	-0.000000000	0.000000000
C 	2.179448435	-1.180948387	0.000000000
O 	3.408815762	-1.129121735	-0.355396387
H 	-0.526681244	-0.937537601	0.164506931
H 	-1.102554866	0.223252810	-2.611105597
H 	-0.514378589	-1.525351934	-2.358186241
H 	0.724275745	-0.178006429	-2.743123825
C 	-0.283359259	-0.470486513	-2.464688549
C 	1.644872864	-2.541765835	0.360788743
H 	1.312212052	-3.042697290	-0.560229454
H 	0.804685167	-2.499384611	1.058081531
H 	2.455113902	-3.142304392	0.783750149
C 	-2.224078080	1.045832457	0.278215229
C 	-3.062004947	2.159111384	0.342556801
C 	-2.543096848	3.444638038	0.157303592
C 	-1.175402994	3.576121302	-0.090139265
C 	-0.314707760	2.491320608	-0.155827543
C 	-0.841497255	1.195464222	0.034819847
H 	-2.634384809	0.048284749	0.417996332
H 	-4.124058248	2.031182030	0.535861266
H 	-3.171967682	4.329664606	0.196121826
F 	-0.666748363	4.828977321	-0.278345668
H 	0.737479111	2.661253073	-0.363462483
Al	4.170005317	0.203029084	-1.441987051
F 	4.004394771	1.639471082	-0.566006749
F 	3.101850323	0.166284014	-2.757348263
F 	5.734308499	-0.306539159	-1.738383051
