29

H 	1.539988898	1.813092240	-1.070401168
C 	3.472723638	1.087438329	-0.502027120
C 	2.105580687	0.991706431	-0.635931101
C 	1.319445526	-0.073008162	-0.100291032
O 	0.056065901	0.068848258	0.054903353
H 	4.023608163	0.238351372	-0.103266544
H 	4.254126233	2.699666581	1.705566940
H 	3.715927057	1.034611624	2.342333553
H 	2.428239783	2.297847916	1.848494540
C 	3.464451372	1.974615775	1.862119115
C 	1.905344147	-1.384264660	0.352580788
H 	2.130302971	-1.314733881	1.427024391
H 	2.822248962	-1.648784970	-0.179625311
H 	1.156692708	-2.171501566	0.226832915
C 	5.704681932	1.992258794	-1.065369512
C 	6.534331494	2.968489505	-1.617009290
C 	5.985584655	4.126102295	-2.178233559
C 	4.597027672	4.270794496	-2.169517691
C 	3.744358226	3.318004542	-1.633747311
C 	4.301665175	2.149336337	-1.070967633
H 	6.137614716	1.096547432	-0.625753592
H 	7.612954239	2.833468888	-1.611338630
H 	6.606672440	4.905940350	-2.609927869
F 	4.058400417	5.402729406	-2.710261095
H 	2.673447934	3.496976798	-1.648120943
Al	-0.841084175	1.713681929	0.210975621
F 	-0.585064911	2.501230032	-1.262915852
F 	0.062943900	2.434022503	1.450460638
F 	-2.424953110	1.322244444	0.575242998
