38

H 	1.821208220	1.853911680	-1.302617010
C 	3.518400610	0.670945140	-0.850300330
C 	2.176430220	0.901703730	-0.918676250
C 	1.127500390	0.074050500	-0.325184410
O 	0.063348320	0.599501380	0.155368280
H 	3.901384950	-0.287844020	-0.515497220
H 	3.887657870	2.192133830	1.472460390
H 	5.001959160	0.698740980	1.587218380
H 	3.168475720	0.544610230	1.926481330
C 	4.003743760	1.118089450	1.540718880
N 	1.245879690	-1.278030030	-0.214592960
C 	0.236053980	-2.023678360	0.558966100
C 	2.148131060	-2.106097180	-1.030401980
H 	-0.195357500	-1.375375770	1.321383700
H 	0.724975130	-2.885334970	1.026184480
H 	-0.569801040	-2.379832660	-0.097264020
H 	2.540444840	-1.528594330	-1.867590810
H 	1.575980750	-2.954256760	-1.425011630
H 	2.981226680	-2.499198430	-0.432456690
C 	4.524206240	1.581359600	-1.528157490
C 	5.919343980	1.535531520	-0.933539500
C 	6.689296500	0.363505440	-1.009955450
C 	7.955348810	0.299180460	-0.419646640
C 	8.474888240	1.414437500	0.249276830
C 	7.722264730	2.591761120	0.316966240
C 	6.454309630	2.649774210	-0.272211010
H 	4.579588040	1.265821200	-2.584233710
H 	4.143203660	2.609218980	-1.533939900
H 	6.297210750	-0.506893410	-1.535969480
H 	8.538794200	-0.617287850	-0.486184410
H 	9.459770210	1.366889940	0.708867390
H 	8.119726960	3.464884750	0.830493210
H 	5.868560200	3.565329610	-0.206736150
Sn	-0.817099940	2.692282450	0.267813650
Cl	-0.778526780	2.572088250	-2.122775260
Cl	1.197329370	3.345885390	1.379938870
Cl	-1.878995720	4.847120850	0.381341670
Cl	-2.456472730	1.504593280	1.511422410
