24

H 	  1.958163	  0.920322	  0.001645
C 	  0.000000	  0.000000	  0.000000
C 	  1.380576	  0.000000	 -0.000000
C 	  2.131910	 -1.225955	  0.000000
O 	  3.369171	 -1.277541	  0.004625
H 	 -0.482467	 -0.966830	  0.137433
H 	 -0.002556	  0.565164	 -2.713749
H 	 -1.621935	 -0.211714	 -2.249437
H 	 -0.115802	 -1.272398	 -2.492239
C 	 -0.544130	 -0.290204	 -2.328293
C 	 -2.581216	  3.312507	  0.863589
C 	 -3.027264	  1.998476	  1.011134
C 	 -2.179940	  0.936562	  0.707176
C 	 -0.864439	  1.160223	  0.259021
C 	 -0.432216	  2.491734	  0.112511
C 	 -1.281099	  3.552418	  0.411126
H 	 -4.034753	  1.799872	  1.368529
H 	 -2.535673	 -0.084263	  0.828943
H 	  0.571132	  2.705033	 -0.243586
H 	 -0.928221	  4.573545	  0.287956
H 	 -3.241186	  4.144504	  1.096426
H 	  1.539595	 -2.164579	  0.006233
I 	  4.612235	 -3.752420	  0.048426
I 	  5.766767	 -6.229174	  0.084089
