24

H 	0.193697160	-1.853610920	-0.245161760
C 	-0.920578160	-0.122928980	0.281837590
C 	0.213683960	-0.778463510	-0.069585170
C 	1.521683940	-0.130598560	-0.228054050
O 	2.570844170	-0.680221780	-0.543137710
H 	-0.931173560	0.957499430	0.373466590
H 	-1.166779480	-1.147951740	3.012813690
H 	-2.104964650	0.457309420	2.860416040
H 	-0.247146300	0.475464510	3.025892330
C 	-1.161974260	-0.076751200	2.852974800
C 	-4.746112090	-2.172905400	0.361903530
C 	-4.643038840	-0.905401340	-0.224686140
C 	-3.408852920	-0.244042140	-0.250516860
C 	-2.277740250	-0.850187010	0.310242110
C 	-2.380813490	-2.117691080	0.896831790
C 	-3.614999420	-2.779050270	0.922662500
H 	-5.508596500	-0.441563080	-0.653793900
H 	-3.329978510	0.725885850	-0.699390960
H 	-1.515255840	-2.581529340	1.325939540
H 	-3.693873830	-3.748978270	1.371536610
H 	-5.690544160	-2.678995140	0.381669880
H 	1.517415350	0.923520600	-0.044438730
I 	3.936917870	0.313962170	-0.731395330
I 	6.162010850	1.933312370	-1.038033770
