24

H 	0.278912899	-2.118956304	0.277846611
C 	-1.027523277	-0.396229380	0.360519757
C 	0.184923123	-1.038711970	0.208272966
C 	1.394893808	-0.307607950	-0.054263260
O 	2.503863022	-0.838286415	-0.202813128
H 	-1.040113529	0.669729218	0.136921408
H 	-0.834462059	-0.678258768	3.111344790
H 	-1.984821643	0.723435204	2.719628349
H 	-0.145971251	0.976816519	2.636760613
C 	-0.990007041	0.297294399	2.666785081
C 	-4.923708847	-2.183601348	0.281726248
C 	-4.750184147	-0.829313142	-0.006716143
C 	-3.479243314	-0.263410189	0.043006386
C 	-2.350176697	-1.037272539	0.371268297
C 	-2.543857530	-2.400619050	0.662779699
C 	-3.814731719	-2.964288437	0.618301795
H 	-5.604978497	-0.213689492	-0.276052180
H 	-3.353711552	0.792410652	-0.187081365
H 	-1.699508874	-3.027372767	0.933451067
H 	-3.942674673	-4.018936569	0.850128477
H 	-5.915173030	-2.628373073	0.247559823
H 	1.294880275	0.795000937	-0.132640419
I 	4.698877201	0.761514063	-0.745681025
I 	6.818328392	2.404810990	-1.271061229
