23

C 	0.486344155	1.017312198	0.453132433
C 	2.692527007	-0.844257439	0.972257187
H 	2.883377462	-2.031860483	-0.718002245
C 	-1.872994388	-0.260542120	-0.528750440
H 	1.082514617	2.337727175	-1.037994232
H 	-0.002202095	2.130099461	2.124545642
H 	1.844768741	-1.567187242	4.969285822
C 	2.112830287	-2.615591169	3.207487613
H 	3.665164027	-3.950593403	3.495059029
H 	0.389002387	-3.707496575	2.866425767
O 	-3.981506631	0.014789997	0.320315234
H 	-1.557767196	-1.524296396	-2.196910595
C 	9.868831063	3.078562167	1.745005503
C 	7.956367092	3.461210527	3.521118491
C 	5.651523848	2.205492136	3.288469064
C 	5.197396565	0.542446098	1.273866705
C 	7.136946584	0.179422015	-0.491741566
C 	9.449187945	1.429390681	-0.265959253
H 	8.260018510	4.742896073	5.099436462
H 	4.197751489	2.537858025	4.700899072
H 	6.839846236	-1.103361030	-2.072030304
H 	10.920823139	1.109955716	-1.665268028
H 	11.666242636	4.057293735	1.928946923
