30

H 	2.234366510	0.632263390	0.386435690
C 	4.148217470	-0.261532800	0.111714520
C 	2.800316600	-0.279904740	0.207033840
C 	1.944759660	-1.422536160	-0.135558260
O 	0.855956490	-1.213520010	-0.785255660
H 	4.674075710	-1.182325090	-0.144209280
C 	6.760328620	3.086572670	0.627376480
C 	7.277803750	1.796306820	0.467537210
C 	6.409935450	0.717261730	0.291196330
C 	5.010646690	0.905659160	0.281520760
C 	4.503594730	2.216189190	0.431951660
C 	5.372463420	3.291170720	0.604483110
H 	8.353544280	1.633208460	0.475638720
H 	6.811813710	-0.286880630	0.161328110
H 	3.432036430	2.394804840	0.391971250
H 	4.970006790	4.296173310	0.712523670
H 	7.432989110	3.931473970	0.759898220
N 	2.246703040	-2.695030410	0.196282400
C 	1.421019580	-3.805206880	-0.317491570
C 	3.269260510	-3.076081510	1.183667970
H 	0.886625110	-3.482055270	-1.209959190
H 	0.694501920	-4.122465340	0.441992290
H 	2.081121560	-4.646299420	-0.555152290
H 	4.138613860	-3.531189480	0.691920570
H 	2.831928430	-3.812921460	1.867669960
H 	3.588603200	-2.204524760	1.754354960
Al	0.245028470	0.321197620	-1.654346750
F 	1.342008290	0.527958750	-2.917868510
F 	0.372349580	1.541113820	-0.480563650
F 	-1.323269340	-0.079204430	-2.097027750
