30

H 	2.249828527	0.615506325	0.410114869
C 	4.160230510	-0.271151242	0.116300040
C 	2.814098274	-0.295858976	0.223829447
C 	1.953043056	-1.431201422	-0.124612885
O 	0.866587096	-1.206581859	-0.770422635
H 	4.690038941	-1.188185105	-0.143320344
C 	6.739219854	3.103110670	0.617734751
C 	7.268488140	1.816128998	0.476167555
C 	6.411976045	0.728310723	0.302226973
C 	5.012016870	0.903775375	0.279584136
C 	4.492740761	2.211363636	0.410074583
C 	5.350363085	3.295064330	0.578980078
H 	8.344939280	1.662121999	0.495387557
H 	6.823903975	-0.272899622	0.185850094
H 	3.420771497	2.381060739	0.355248655
H 	4.938044610	4.297254913	0.670368495
H 	7.403102720	3.955066557	0.746283898
N 	2.241833920	-2.707712261	0.197968274
C 	1.400124444	-3.802906382	-0.317381853
C 	3.265661174	-3.105691988	1.173933996
H 	0.863078259	-3.467030635	-1.203166186
H 	0.675250757	-4.116980674	0.444576072
H 	2.047189118	-4.650285550	-0.566663990
H 	4.123520905	-3.572109131	0.673525808
H 	2.824073621	-3.837336771	1.860213543
H 	3.602604492	-2.240454005	1.743362982
Al	0.283786567	0.338681736	-1.637624166
F 	1.377063227	0.520378265	-2.905815987
F 	0.436568521	1.558860707	-0.470286705
F 	-1.292798617	-0.030623292	-2.073372247
