27

H 	2.138189731	0.437471816	0.243132508
C 	0.000000000	0.000000000	0.000000000
C 	1.441327130	-0.366571164	0.000000000
C 	1.976213525	-1.671592772	0.000000000
O 	3.181636272	-1.885710100	0.423698896
H 	-0.643399640	-0.789506168	-0.400208265
H 	-1.373411170	1.598162540	-0.514778410
H 	-0.113432268	1.281983393	-1.738200849
C 	-0.319893753	1.338079295	-0.663454798
H 	0.301733596	2.138139123	-0.243000950
C 	2.058439664	-3.711142280	-1.511009300
C 	1.227821353	-2.885337695	-0.504839247
H 	3.008195598	-4.017275841	-1.064612237
H 	2.274013312	-3.123466253	-2.410820241
H 	1.503760044	-4.606817801	-1.809438222
H 	0.999308206	-3.509956739	0.372576292
H 	0.273444827	-2.589293147	-0.950978753
C 	-0.427664688	-1.157485026	2.263590232
H 	-0.979687045	-0.901756322	3.175229597
H 	0.532523616	-1.598166424	2.559898104
H 	-1.015867491	-1.881598305	1.691717216
N 	-0.273524520	0.068595095	1.469629051
H 	0.312654067	0.764200887	1.936126238
Al	4.055505709	-0.852572633	1.710580883
F 	2.865194480	-0.781079491	2.920889245
F 	4.283670450	0.668768028	1.009076210
F 	5.443929510	-1.700908297	2.101070408
