35

H 	1.461874400	2.155055250	-0.646833789
C 	3.329827393	1.119190130	-0.440110908
C 	1.950328024	1.209868773	-0.436651953
C 	1.058501363	0.195852508	0.089766105
O 	-0.026180419	0.510012179	0.712698020
H 	3.765716180	0.149097585	-0.214643489
H 	2.816901408	2.143361196	1.996004969
H 	4.646498647	2.308325763	1.698566137
H 	3.923163205	0.679098029	2.237353259
C 	3.775749501	1.671186143	1.816768013
N 	1.318302761	-1.133979571	-0.018213134
C 	2.167558515	-1.721181487	-1.065159415
C 	0.465604895	-2.091264892	0.707328117
H 	2.479116641	-0.956452244	-1.775529972
H 	1.587293631	-2.483434953	-1.599956016
H 	3.053586448	-2.202825543	-0.632581451
H 	1.055742902	-2.990255623	0.911217514
H 	-0.412749383	-2.365414267	0.107445987
H 	0.123705278	-1.645804142	1.641337065
O 	6.221417225	0.969093991	-0.216612717
H 	5.579014084	0.661760761	0.447107343
C 	5.629428320	1.926037009	-1.016336576
C 	6.492907857	2.761276633	-1.734160283
C 	5.971698757	3.768059047	-2.544331798
C 	4.583692877	3.949438691	-2.640207016
C 	3.727514966	3.107931355	-1.937695821
C 	4.221864879	2.068621719	-1.119795413
H 	7.564793096	2.614322747	-1.629392163
H 	6.647621386	4.417159234	-3.096217029
H 	2.653679005	3.237132541	-2.037591713
H 	4.175159787	4.736365474	-3.268760545
B 	-0.430201144	1.993370853	1.196144541
F 	-1.590663432	1.795851673	1.907238263
F 	-0.597714444	2.761659916	0.042406454
F 	0.635125572	2.453434692	1.982971553
