24

H 	2.377901171	0.586858985	0.547387624
C 	4.231235659	-0.236124089	-0.123788774
C 	2.916259840	-0.284212147	0.185031771
C 	2.080658672	-1.481841920	0.074016463
O 	0.878642118	-1.521558227	0.367348208
H 	4.705078302	-1.151514328	-0.477775387
C 	6.876193052	3.121664961	0.094759227
C 	5.535942046	3.273045313	0.481179162
C 	4.659183550	2.193290250	0.418528559
C 	5.104350909	0.930485936	-0.033939506
C 	6.456456390	0.794648671	-0.416193607
C 	7.334246365	1.877972172	-0.352252787
H 	5.177743938	4.238359590	0.832055429
H 	3.624961914	2.328872464	0.723671799
H 	6.812710762	-0.173095789	-0.764791928
H 	8.372478101	1.753213653	-0.651831753
H 	7.556605047	3.968832896	0.145544489
O 	2.732613554	-2.584010562	-0.388216761
C 	1.922860598	-3.790998923	-0.510228608
H 	1.102078095	-3.625878503	-1.214552753
H 	1.513914838	-4.072489802	0.464665658
H 	2.608616684	-4.553734393	-0.881664123
I 	-0.490908604	0.594298723	1.473229529
I 	-1.870363370	2.719292799	2.618081750
