32

H 	1.544517440	2.146112320	0.756408950
C 	3.523901720	1.229716480	0.308585980
C 	2.047986060	1.239318960	0.426266830
C 	1.174124840	0.160832600	0.081423910
O 	-0.090885970	0.267741370	-0.015691140
H 	3.871507390	0.196631440	0.186514120
H 	5.238064850	1.825963250	1.536509960
H 	3.859748790	1.215903940	2.465774870
C 	4.145923450	1.821653870	1.598695520
H 	3.802341940	2.845997540	1.777331750
O 	1.757909860	-1.026001650	-0.148049020
C 	0.881825590	-2.127345780	-0.558253290
H 	0.374878740	-1.866967380	-1.491578060
H 	0.142279430	-2.325291550	0.222388570
H 	1.552265280	-2.976275120	-0.693737150
C 	3.310028770	1.296055030	-2.243923090
C 	3.981024450	1.989055960	-1.034244190
C 	5.513700830	1.863278420	-1.168826260
C 	3.573818300	3.477639290	-1.007147790
H 	4.038013300	4.013285670	-0.171558320
H 	3.697033720	1.720383990	-3.178055100
H 	2.223951600	1.444562940	-2.240685210
H 	3.518208200	0.218546900	-2.251462620
H 	5.831310820	2.293363890	-2.127314490
H 	5.832963730	0.813028270	-1.149326930
H 	6.045418990	2.400900630	-0.376873540
H 	3.905749260	3.962475850	-1.933744450
H 	2.486863620	3.600194430	-0.944056220
Al	-1.086853360	1.868222150	-0.148975770
F 	-0.342239090	2.579073100	-1.488651920
F 	-0.720703520	2.681616120	1.283430960
F 	-2.665479340	1.348304990	-0.344220800
