35

H 	-0.859699018	-1.934435551	-0.022567905
C 	0.000000000	0.000000000	0.000000000
C 	-1.052987974	-0.868247592	0.000000000
C 	-2.443246408	-0.483466939	-0.000000000
O 	-3.371198871	-1.336474184	-0.084528597
H 	-0.193765683	1.068582560	0.083708583
H 	-0.547831248	-0.546494380	-2.772176658
H 	0.946587602	0.575614264	-2.795348704
H 	-0.745547579	1.285342056	-2.483087606
C 	-0.100597087	0.418403920	-2.568728991
C 	-4.371265087	1.209289153	0.047345995
C 	-2.857483389	0.976895695	0.110660898
H 	-4.884866642	0.685535906	0.859162026
H 	-4.787398368	0.841480446	-0.895758345
H 	-4.587104356	2.279970739	0.130471567
H 	-2.441634109	1.370437540	1.049568795
H 	-2.346952927	1.529454106	-0.691267940
C 	2.410266293	0.722045159	-0.150864494
C 	1.441509042	-0.416002769	0.240799528
C 	1.818134903	-1.716893793	-0.502323680
C 	1.558111233	-0.654549211	1.780653368
H 	0.909015529	-1.477286257	2.096476506
H 	3.435850588	0.457592155	0.130095847
H 	2.150179271	1.655019429	0.364975434
H 	2.395397092	0.913284305	-1.228105459
H 	2.858661704	-1.979260315	-0.279838758
H 	1.718758958	-1.595512758	-1.585706696
H 	1.192223205	-2.560575350	-0.194995815
H 	2.595561431	-0.905756364	2.031923139
H 	1.277848886	0.243065112	2.344783872
Sn	-3.393533543	-3.636240153	-0.476751199
Cl	-5.721565712	-3.228142262	-0.441693737
Cl	-2.222335560	-3.772806465	1.601828920
Cl	-3.457676995	-5.991686717	-0.910750833
Cl	-2.170472740	-3.042703948	-2.450360812
