35

H 	1.794387312	2.237999011	-0.477933850
C 	3.567859385	1.082991262	-0.526785881
C 	2.215614805	1.240526186	-0.430583493
C 	1.268937147	0.169175699	-0.238530864
O 	0.036127462	0.390256129	-0.073709927
H 	3.984945779	0.076865652	-0.539868334
H 	3.041658884	1.534090207	2.266663847
H 	4.902382929	1.404951933	2.148419248
H 	3.856552197	-0.133389520	2.082954280
C 	3.925707335	0.947802094	2.049494185
C 	0.587093461	-2.290059107	0.030121712
C 	1.714844933	-1.286036031	-0.233819196
H 	-0.194521748	-2.214357078	-0.731781272
H 	0.117163061	-2.108536685	1.001775446
H 	0.987000698	-3.309783117	0.020496004
H 	2.198981469	-1.488774220	-1.200185010
H 	2.508864035	-1.388496952	0.519896556
C 	5.982483159	1.795452331	-0.651221262
C 	4.520190696	2.182886199	-0.965291566
C 	4.182622050	3.550715095	-0.331660666
C 	4.359266377	2.284038873	-2.516266042
H 	3.342090651	2.588356272	-2.782179931
H 	6.668232554	2.540186761	-1.070525025
H 	6.234339756	0.821666830	-1.089954816
H 	6.163936616	1.740312244	0.426403818
H 	4.886790032	4.307881550	-0.694811005
H 	4.255962792	3.509008629	0.759764733
H 	3.173977866	3.885925800	-0.592974904
H 	5.064605326	3.027210986	-2.907081373
H 	4.570964219	1.323866126	-3.001811097
Sn	-1.209751349	2.340818775	0.220147642
Cl	-2.927289279	0.740524727	0.496967274
Cl	-0.481371194	2.869217343	-1.993696907
Cl	-2.517482534	4.319725464	0.558328143
Cl	0.296812345	2.710974705	2.046769737
