26

H 	0.31247800	-1.71438300	0.34884000
C 	-0.85984200	0.07281000	0.95374100
C 	0.30731800	-0.62299000	0.35751700
C 	1.44359300	0.00546400	-0.22622100
O 	2.51465800	-0.55773800	-0.73902200
H 	-0.69328400	1.15286500	0.94410200
H 	-2.09930000	0.10633400	2.73883700
H 	-0.38708300	-0.20395200	3.06925200
C 	-1.20658000	-0.41120600	2.37413800
H 	-1.40705200	-1.48736700	2.39591500
C 	-4.29433500	-0.66828400	-1.59738200
C 	-3.82226800	0.63774000	-1.42033800
C 	-2.71467200	0.87643400	-0.59752200
C 	-2.07840900	-0.19079600	0.04876100
C 	-2.55123400	-1.49720800	-0.12881500
C 	-3.65868400	-1.73571600	-0.95151500
H 	-4.30902300	1.45553600	-1.91495700
H 	-2.35339500	1.87721400	-0.46216400
H 	-2.06493800	-2.31528300	0.36545600
H 	-4.02024200	-2.73633900	-1.08706500
H 	-5.14269100	-0.85116300	-2.22758800
H 	2.03964900	-0.67463200	-0.71698500
B 	1.55361700	0.85719600	-0.28397500
F 	1.78266300	0.57128900	0.99977000
F 	0.45941500	0.33707300	-0.87484000
F 	2.37538100	1.59638600	-0.95933000
