29

H 	1.917246187	0.850054245	-0.404577568
C 	0.000000000	0.000000000	0.000000000
C 	1.374621422	0.000000000	-0.000000000
C 	2.190817329	-1.211128962	-0.000000000
O 	3.307115877	-1.322853607	-0.469639771
H 	-0.516420140	-0.923397275	0.260703968
H 	1.770599630	1.493014312	2.121015377
H 	1.659976803	-0.271996432	2.681414174
H 	3.251903629	0.393603180	1.978918245
C 	2.179654088	0.488577611	2.110363592
I 	1.338185215	-3.040653588	0.929821923
C 	-1.924023834	0.806176648	-1.336047917
C 	-0.881307537	1.195938816	-0.251664182
C 	-1.631037660	1.513810803	1.076990193
C 	-0.095320016	2.440050302	-0.714161364
H 	0.623020251	2.770942838	0.044961242
H 	-2.627010953	1.633060935	-1.493831778
H 	-1.430860427	0.584084534	-2.288897541
H 	-2.497485006	-0.077410320	-1.031750056
H 	-2.328542174	2.345577338	0.918978875
H 	-2.204660103	0.646541052	1.423890777
H 	-0.927578152	1.798706450	1.867267278
H 	-0.787062417	3.269247936	-0.899927392
H 	0.451603491	2.242967116	-1.643328890
Ti	4.714554193	-0.145224139	-1.939897558
Cl	2.845527457	-0.072966185	-3.170592688
Cl	4.866049803	1.249629463	-0.190684759
Cl	5.842049836	-2.052541451	-1.863976605
Cl	6.035365296	0.978070720	-3.328162419
