29

H 	 -1.772465	 -1.179971	  0.004165
C 	  0.000000	  0.000000	  0.000000
C 	 -1.331906	 -0.186107	  0.000000
C 	 -2.335865	  0.862707	  0.000000
O 	 -3.538400	  0.690858	  0.032480
H 	  0.378012	  1.023765	  0.002696
H 	 -1.235950	 -1.276548	 -3.710898
H 	 -1.006106	  0.563872	 -3.420842
H 	 -2.662128	 -0.244735	 -3.062312
C 	 -1.629703	 -0.321597	 -3.381838
I 	 -1.666601	  2.982952	 -0.100404
C 	  2.007590	 -0.846292	  1.170265
C 	  1.054145	 -1.072621	 -0.036270
C 	  1.851897	 -0.873257	 -1.359484
C 	  0.470340	 -2.497966	  0.011367
H 	 -0.186331	 -2.689821	 -0.844704
H 	  2.829154	 -1.571189	  1.131096
H 	  1.476594	 -0.977292	  2.119871
H 	  2.438735	  0.161569	  1.152241
H 	  2.672326	 -1.599213	 -1.404955
H 	  2.281484	  0.133551	 -1.417455
H 	  1.203140	 -1.024032	 -2.228743
H 	  1.282452	 -3.232893	 -0.016959
H 	 -0.103658	 -2.664934	  0.930036
Ti	 -5.422746	 -0.685167	  0.078677
Cl	 -4.023167	 -2.243550	  0.878601
Cl	 -5.341500	 -0.206245	 -2.103594
Cl	 -6.096293	  0.858353	  1.527302
Cl	 -7.259851	 -1.930118	  0.043059
