29

H 	1.811921451	2.099827445	1.361111708
C 	2.735792214	1.823780825	-0.537372491
C 	1.832286331	1.553549916	0.421409495
C 	0.792730809	0.542673205	0.347954147
O 	-0.042147770	0.323084275	1.203194117
H 	2.697793082	1.243188158	-1.460661707
H 	4.547644403	-0.168540282	2.573216232
H 	3.977212905	-1.154725447	1.081186437
H 	2.803970219	-0.858237070	2.516593465
C 	3.770534365	-0.713141626	2.049038409
I 	0.698368768	-0.764719347	-1.450727643
C 	3.706557841	3.781523946	-1.695389257
C 	3.841334911	2.841415589	-0.464925937
C 	5.182339800	2.055423339	-0.569670272
C 	3.820707022	3.667121309	0.836031735
H 	3.940046533	3.027214893	1.717599634
H 	4.541500990	4.491921262	-1.708937886
H 	2.770452606	4.349755913	-1.654301920
H 	3.724574749	3.213638766	-2.633033429
H 	6.020719713	2.761971955	-0.579284244
H 	5.224499218	1.460975905	-1.489682691
H 	5.303231363	1.381136324	0.284701331
H 	4.645092832	4.388790398	0.830787718
H 	2.883784360	4.226199206	0.940486979
Ti	-1.013764861	0.727118396	3.286234647
Cl	-0.035086617	2.738629058	3.133677759
Cl	0.263202178	-1.038603579	3.786088928
Cl	-2.869084137	0.451165953	2.096160974
Cl	-1.939771959	1.001325595	5.284595489
