24

H 	-0.916613668	-1.930064896	-0.003446155
C 	0.000000000	0.000000000	0.000000000
C 	-1.049154281	-0.852050185	0.000000000
C 	-2.454334543	-0.441399853	0.000000000
O 	-3.408078393	-1.230545323	-0.013686184
H 	-0.212037035	1.068824302	-0.001680886
C 	2.378443832	0.667811150	-0.027562752
C 	3.744423002	0.385560293	-0.031196545
C 	4.140879074	-0.948254904	-0.004576280
C 	3.223696337	-2.000367642	0.026420251
C 	1.865241434	-1.701452049	0.027848644
C 	1.412896032	-0.361901678	0.000385320
H 	2.048206661	1.704199260	-0.047939615
H 	4.491746759	1.173692347	-0.053376197
F 	5.475064664	-1.240925043	-0.006539088
H 	3.580573824	-3.026264086	0.048109278
H 	1.150014190	-2.518606511	0.052371830
O 	-2.649159877	0.905292169	0.017631171
C 	-4.041252767	1.342057132	0.017347967
H 	-4.556634936	0.961437253	0.903990014
H 	-4.550112534	0.982193211	-0.881574278
H 	-3.994271697	2.431743122	0.030257989
I 	-3.093585310	-3.964430582	-0.067850204
I 	-2.763696457	-6.724299367	-0.123996618
