24

H 	2.346335690	0.633691150	-0.247235350
C 	4.229256920	-0.251922810	0.255253720
C 	2.903132150	-0.269085440	-0.009519230
C 	2.074405190	-1.478901890	-0.007671790
O 	0.858819390	-1.490569230	-0.243522510
H 	4.711365620	-1.202981770	0.482159810
C 	6.481492470	0.718513190	0.545492700
C 	7.380473670	1.785718450	0.568456110
C 	6.892372930	3.065330790	0.314632790
C 	5.543781950	3.307536600	0.041090370
C 	4.660574750	2.230943020	0.020167720
C 	5.109580430	0.912770550	0.269941500
H 	6.844543600	-0.288599890	0.741922560
H 	8.436414910	1.638593560	0.778168950
F 	7.763240680	4.121855420	0.333794740
H 	5.205236030	4.322574820	-0.149312320
H 	3.611264460	2.418417160	-0.191642990
O 	2.751490880	-2.626060960	0.279763190
C 	1.947914410	-3.845489550	0.299462930
H 	1.487059840	-4.011090920	-0.678994510
H 	1.166407050	-3.770272650	1.061659940
H 	2.653042920	-4.642721160	0.539768290
I 	-0.629938440	0.732505340	-0.872635270
I 	-2.169600150	2.953038790	-1.517764320
