24

H 	2.360264822	0.610471559	-0.252694563
C 	4.238572510	-0.274179174	0.251979894
C 	2.913643808	-0.293212079	-0.014320517
C 	2.081579417	-1.497712039	-0.010584390
O 	0.865587797	-1.502031954	-0.242771675
H 	4.724177104	-1.220659703	0.488011042
C 	6.469232270	0.732970527	0.588926495
C 	7.348390794	1.815525939	0.615980385
C 	6.848698391	3.076997871	0.306230323
C 	5.509943211	3.289472036	-0.028008318
C 	4.646261902	2.199341549	-0.048560990
C 	5.106257423	0.898131172	0.259694534
H 	6.840483485	-0.261340926	0.827860355
H 	8.397833133	1.694497005	0.869277927
F 	7.697389127	4.147042935	0.327169441
H 	5.165825505	4.292550654	-0.264041704
H 	3.604357608	2.362480447	-0.308780041
O 	2.752992478	-2.647057053	0.272360324
C 	1.946804759	-3.863045638	0.283289693
H 	1.493710570	-4.024581752	-0.699174623
H 	1.159480741	-3.787772993	1.038906280
H 	2.647301461	-4.662888966	0.526896897
I 	-0.563403678	0.782321904	-0.804624919
I 	-1.996717287	3.096471249	-1.369584820
