31

H 	2.517808306	0.656578537	0.401866370
C 	4.351893609	-0.272646864	-0.070512197
C 	3.023334463	-0.268378207	0.150799937
C 	2.167410579	-1.449635840	0.075342862
O 	0.934685489	-1.374572353	0.281826602
H 	4.848892442	-1.210753520	-0.325478264
C 	4.544506147	2.224825695	0.361498510
C 	5.274481253	0.918583696	-0.008468947
C 	5.943359772	1.065498303	-1.404796258
C 	6.371883655	0.608770206	1.049119804
H 	6.911192389	-0.314502089	0.804777477
H 	5.261007440	3.053181478	0.391798329
H 	4.069873850	2.153544295	1.346611423
H 	3.771815991	2.474719616	-0.374194691
H 	6.668169735	1.887909445	-1.382069849
H 	5.195896911	1.285200693	-2.175237239
H 	6.475844877	0.149977007	-1.689947253
H 	7.098232731	1.429559503	1.078938794
H 	5.933437411	0.499306594	2.047317523
C 	1.702188093	-3.944129638	-0.298075397
C 	2.742032325	-2.818693380	-0.261823823
H 	0.930004691	-3.743651022	-1.047056241
H 	1.202276326	-4.050462793	0.669605020
H 	2.190236726	-4.893185020	-0.544962238
H 	3.256837253	-2.732237107	-1.229718292
H 	3.529519196	-3.038164057	0.473456056
Sn	-0.577333956	0.405734780	0.839215580
Cl	0.825114336	0.602166119	2.756586830
Cl	-2.079597700	-1.413825366	0.746382698
Cl	-2.120608852	2.144576593	1.397242738
Cl	0.195526521	1.322781184	-1.221154815
