31

H 	  1.985785	  0.961678	  0.009504
C 	  0.000000	  0.000000	  0.000000
C 	  1.481346	  0.000000	  0.000000
C 	  2.320031	 -1.152022	  0.000000
O 	  3.589546	 -1.063181	  0.150338
H 	 -0.379127	 -1.024960	 -0.092454
H 	 -1.592902	  0.811974	 -1.267849
H 	 -0.124733	  0.368755	 -2.154026
C 	 -0.499828	  0.813707	 -1.226128
H 	 -0.150504	  1.849979	 -1.187121
C 	  1.763733	 -2.543066	 -0.169715
H 	  1.156441	 -2.811687	  0.704733
H 	  2.586085	 -3.254784	 -0.265489
H 	  1.111900	 -2.605260	 -1.049096
C 	 -0.020385	 -0.382041	  2.517388
C 	 -0.561428	  0.536811	  1.397591
C 	 -2.101332	  0.450737	  1.380581
C 	 -0.121243	  1.989946	  1.673204
H 	 -0.473000	  2.677777	  0.896649
H 	 -0.436575	 -0.082069	  3.486124
H 	  1.071711	 -0.324490	  2.591536
H 	 -0.304031	 -1.428245	  2.343932
H 	 -2.492735	  0.697226	  2.375257
H 	 -2.443029	 -0.561214	  1.127611
H 	 -2.548071	  1.153357	  0.669643
H 	 -0.548744	  2.325141	  2.625817
H 	  0.967284	  2.079611	  1.751586
B 	  4.413369	  0.344925	  0.517121
F 	  3.792568	  0.813880	  1.671703
F 	  4.222806	  1.173567	 -0.579742
F 	  5.695646	 -0.091542	  0.694729
