31

H 	1.985785443	0.961678317	0.009504323
C 	0.000000000	0.000000000	0.000000000
C 	1.481346443	-0.000000000	0.000000000
C 	2.320030551	-1.152022120	-0.000000000
O 	3.589545690	-1.063181259	0.150337761
H 	-0.379127148	-1.024960227	-0.092454245
H 	-1.592901932	0.811973515	-1.267849000
H 	-0.124732888	0.368754864	-2.154026435
C 	-0.499828239	0.813707351	-1.226127535
H 	-0.150504151	1.849978790	-1.187121353
C 	1.763733331	-2.543066037	-0.169714962
H 	1.156440586	-2.811687422	0.704733340
H 	2.586084945	-3.254784420	-0.265489041
H 	1.111900237	-2.605259676	-1.049096053
C 	-0.020384963	-0.382040857	2.517387651
C 	-0.561427828	0.536810923	1.397590834
C 	-2.101331546	0.450736771	1.380580564
C 	-0.121242547	1.989945849	1.673203895
H 	-0.473000386	2.677776898	0.896649215
H 	-0.436575375	-0.082069230	3.486124494
H 	1.071711287	-0.324490045	2.591535674
H 	-0.304030765	-1.428244557	2.343931720
H 	-2.492734653	0.697226312	2.375256986
H 	-2.443028907	-0.561214362	1.127611307
H 	-2.548071423	1.153356987	0.669642735
H 	-0.548743654	2.325140978	2.625816638
H 	0.967284452	2.079610669	1.751585659
B 	4.413368664	0.344924702	0.517120929
F 	3.792568162	0.813880380	1.671703281
F 	4.222805880	1.173567288	-0.579742138
F 	5.695645876	-0.091541615	0.694729255
