31

H 	1.628761745	2.254114695	0.582330013
C 	3.498571750	1.159491377	0.165353181
C 	2.028559940	1.285190318	0.298215286
C 	1.074832992	0.249951624	0.076332992
O 	-0.185261601	0.482895436	0.068482829
H 	3.772674913	0.118410872	-0.044044735
H 	5.246358909	1.467685155	1.451562840
H 	3.799635350	0.931423307	2.321440840
C 	4.159150948	1.573174651	1.509911817
H 	3.919249664	2.608405463	1.770970879
C 	1.491118002	-1.178253725	-0.169042670
H 	2.009255194	-1.255708209	-1.134007132
H 	0.606174663	-1.817426121	-0.186701784
H 	2.187910790	-1.526666377	0.602419557
C 	3.316767151	1.458914685	-2.356730108
C 	4.022498957	1.998299793	-1.091041675
C 	5.542638000	1.780451981	-1.234990236
C 	3.721179372	3.504388183	-0.941940964
H 	4.192662530	3.929051941	-0.049054284
H 	3.699153701	1.968776559	-3.248621303
H 	2.234330494	1.626533380	-2.315268079
H 	3.499084553	0.384037639	-2.485119298
H 	5.893121437	2.247936708	-2.163405046
H 	5.791283209	0.712443947	-1.283260578
H 	6.105719491	2.228673079	-0.409931835
H 	4.119539809	4.042840006	-1.810251165
H 	2.645398464	3.703669936	-0.896589788
B 	-0.877889061	2.002486077	0.152673509
F 	-0.286583135	2.706598357	-0.892771993
F 	-0.530940159	2.491060049	1.404469510
F 	-2.207784573	1.739243604	-0.015741870
