29

H 	1.577621974	2.250066669	-0.741482582
C 	3.365656849	1.085558413	-0.666646660
C 	2.009871137	1.272676312	-0.567046972
C 	1.050907438	0.277959126	-0.134520039
O 	-0.129665234	0.586720162	0.214458285
H 	3.777157237	0.081251486	-0.573318097
H 	3.633781546	2.264518098	1.793612310
H 	5.083849182	1.118254529	1.532596513
H 	3.424656582	0.438537039	2.061243305
C 	4.018450493	1.259412626	1.675189600
N 	1.399840475	-1.036290131	-0.060082448
H 	2.230032217	-1.388693564	-0.516307516
H 	0.676272994	-1.696794539	0.199885904
C 	6.184721402	3.928642746	-2.197194102
C 	4.900370332	4.354156359	-1.831713978
C 	3.972067669	3.444126945	-1.329555288
C 	4.312043517	2.083457292	-1.182143326
C 	5.610480048	1.671116303	-1.544389448
C 	6.537164989	2.582224728	-2.051800823
H 	4.623831184	5.400641168	-1.937192766
H 	2.985330578	3.795103964	-1.040517009
H 	5.888287727	0.624627154	-1.427771976
H 	7.532404896	2.244271054	-2.331469682
H 	6.905427228	4.643081441	-2.588107852
Ti	-1.192904594	2.348347462	0.763989143
Cl	-2.249815494	4.243629297	1.363641090
Cl	-2.825797470	0.950142749	1.380794600
Cl	0.569223509	2.713992843	2.152002511
Cl	-1.024395709	2.919072319	-1.417250440
