27

H 	0.83345100	-1.35209100	1.20167700
C 	-0.83092100	0.03539000	0.93442800
C 	0.35139700	-0.78131700	0.40158900
C 	1.39689300	0.07225700	-0.26739800
O 	2.40703500	-0.34587300	-0.75774600
H 	-1.19392500	0.69150400	0.13740700
H 	0.00939100	-1.50634300	-0.34451200
H 	-0.05768300	0.24518200	2.94899700
C 	-0.44138200	0.87842700	2.14736300
H 	0.32560700	1.60312800	1.87585800
H 	-1.31355900	1.41759600	2.51749700
C 	-2.27072000	-1.82616700	0.11582000
C 	-1.96962500	-0.92743100	1.31904400
C 	-3.20179200	-0.09637400	1.68950200
C 	-1.51005400	-1.76760300	2.51446800
H 	-1.27318100	-1.12277200	3.36148800
H 	-3.07548300	-2.52473600	0.35095700
H 	-1.38428800	-2.39825900	-0.16042100
H 	-2.57404500	-1.22292600	-0.74059900
H 	-4.03273100	-0.74631300	1.96888000
H 	-3.51153500	0.51878800	0.84392800
H 	-2.97657800	0.55997400	2.53083700
H 	-2.29343200	-2.46452600	2.81703800
H 	-0.61838100	-2.33929200	2.25475700
H 	1.16279000	1.11629200	-0.25803000
Sn	3.62898800	-1.04016600	-1.71419100
Cl	3.95998900	-0.67181700	-4.04370700
