27

H 	0.74195000	-2.10008300	1.19265800
C 	-0.56180400	-0.32553600	0.94371800
C 	0.36592200	-1.44646900	0.40172500
C 	1.51889600	-0.92623000	-0.39107700
O 	2.68183300	-1.28072100	-0.21846800
H 	-0.74497100	0.36368000	0.10723100
H 	-0.18724000	-2.06945600	-0.31594000
H 	0.43369300	-0.14394800	2.89604500
C 	0.19139200	0.47128000	2.02406800
H 	1.13673500	0.85688200	1.62998800
H 	-0.37994100	1.33498600	2.36741800
C 	-2.71344200	-1.44582500	0.13905600
C 	-1.98983900	-0.84423800	1.36443700
C 	-2.84004400	0.34881800	1.85819200
C 	-1.92929300	-1.90680900	2.48142800
H 	-1.44508200	-1.52721000	3.38545500
H 	-3.74602600	-1.69909800	0.39838300
H 	-2.24779400	-2.36767200	-0.22116600
H 	-2.74945700	-0.73667600	-0.69519500
H 	-3.87253200	0.02797200	2.02736200
H 	-2.86415100	1.15861200	1.12082700
H 	-2.47324100	0.76098000	2.80092600
H 	-2.94189900	-2.21366300	2.76246800
H 	-1.39707800	-2.80932300	2.16662400
H 	1.28080900	-0.19782500	-1.18955600
Sn	4.62116900	-0.46071200	-1.63545300
Cl	3.34589100	-0.97584800	-3.65010900
