23

H 	1.924050087	0.925442499	0.003345594
C 	0.000000000	0.000000000	0.000000000
C 	1.354967545	0.000000000	0.000000000
C 	2.201978614	-1.172985922	-0.000000000
O 	3.413498795	-1.192131355	0.020691505
H 	-0.502596884	-0.966182711	-0.002379866
C 	-2.647814698	3.347642453	0.028974954
C 	-1.262115895	3.568856268	0.012710993
C 	-0.379724085	2.493460737	0.002528041
C 	-0.867242930	1.165654206	0.006911673
C 	-2.265384422	0.960693202	0.021841279
C 	-3.147173801	2.040800878	0.033878273
H 	-0.874952521	4.584979049	0.009581249
H 	0.690366892	2.681201297	-0.008714713
H 	-2.650345982	-0.057044282	0.025689824
H 	-4.220271826	1.865458686	0.045922801
H 	-3.332417621	4.192706986	0.038219349
Br	1.270993876	-2.967448194	-0.040994508
Sn	5.340306102	0.732601454	0.321651730
Cl	4.270690330	1.453942493	-1.656337955
Cl	6.557198965	-1.263033588	0.188740327
Cl	7.028250576	2.368731367	0.597388436
Cl	4.019380033	1.053404631	2.250312653
