23

H 	2.519473500	0.701323330	0.418197500
C 	4.345727870	-0.108440140	-0.344719650
C 	3.028897750	-0.151635430	-0.023769820
C 	2.147925280	-1.285883820	-0.211744320
O 	0.960966340	-1.334015340	0.029586430
H 	4.782453340	-0.998874930	-0.796202640
C 	7.103786180	3.107309310	0.198680480
C 	5.781947240	3.252078500	0.649019210
C 	4.865264990	2.218981790	0.477837650
C 	5.252681850	1.011082180	-0.148584650
C 	6.588248270	0.881300220	-0.594671440
C 	7.503944360	1.920038080	-0.424663510
H 	5.472480470	4.173986990	1.136625480
H 	3.846757760	2.343901920	0.836400640
H 	6.897867130	-0.044151210	-1.077191150
H 	8.527650600	1.804957180	-0.774590000
H 	7.816277250	3.917931810	0.336486140
Br	2.983069410	-2.974716010	-0.938843040
Sn	-0.985749160	0.470354090	0.692006320
Cl	0.481393280	0.666178320	2.534676710
Cl	-2.136531990	-1.560861820	0.487827010
Cl	-2.700789820	2.007324910	1.239865440
Cl	-0.088331450	1.391413950	-1.288588170
