29

H 	2.357113720	0.762462730	0.368324800
C 	4.209290500	-0.144951860	-0.158322820
C 	2.876317120	-0.158041820	0.125133700
C 	2.063407090	-1.353790820	0.119894200
O 	0.819683990	-1.314760400	0.361210210
H 	4.671410510	-1.096181530	-0.430951370
O 	6.852723560	-0.088609230	-1.432236660
H 	6.143746600	-0.735790070	-1.590283910
C 	6.378331760	0.976263480	-0.702213880
C 	7.248592890	2.067909530	-0.582956010
C 	6.845140900	3.206833040	0.107578860
C 	5.565692770	3.274304500	0.689644730
C 	4.705450370	2.193292950	0.580845260
C 	5.083819000	1.007930740	-0.104708310
H 	8.227088560	2.005243130	-1.052105090
H 	7.527067890	4.050235910	0.192190370
H 	3.730172660	2.234015850	1.057819550
H 	5.256842230	4.163826960	1.232758350
C 	1.641945060	-3.877665500	-0.118261680
C 	2.654759690	-2.725766810	-0.165938510
H 	0.841946690	-3.731321470	-0.850642900
H 	1.177137040	-3.952075360	0.869809750
H 	2.148857900	-4.823821620	-0.337898980
H 	3.138046920	-2.683265080	-1.153661590
H 	3.465966340	-2.897893100	0.556486210
B 	-0.093303160	0.057921350	0.694453870
F 	0.056011300	0.855267420	-0.431649890
F 	0.484647050	0.600703720	1.836233000
F 	-1.346439080	-0.463492790	0.875269180
