70

C 	-2.337799650	0.931769440	1.012526950
C 	-1.027774280	0.226474250	0.951825030
C 	-0.559846760	-0.803699800	1.843486490
O 	0.556361870	-1.352113960	1.760562590
H 	0.966164320	-4.821839220	-2.582839900
H 	-2.968412500	0.446320790	1.766701000
H 	-0.316525530	0.501834910	0.176812550
H 	5.244024140	1.691317910	-0.141207730
H 	4.585384690	0.421019400	0.912172840
H 	0.735982420	-4.366463030	-0.883511590
H 	4.825012670	0.098863450	-0.825858720
C 	-3.043336930	0.806681080	-0.364676270
H 	-2.453544830	1.268893430	-1.163094320
H 	2.303686680	-4.102072120	-1.666348440
H 	-1.410664020	-2.144115510	-0.565226240
H 	-4.030204080	1.278759410	-0.340545640
H 	-3.179523950	-0.248156000	-0.622753690
N 	2.124403410	0.247270690	-0.371554120
C 	1.932170550	-0.554652030	-1.496270710
N 	1.218594370	-1.705699130	-1.224082740
C 	3.097492320	1.348783000	-0.397481240
H 	1.926428730	-0.182626590	0.530679910
C 	0.801156030	-2.656109510	-2.256488600
H 	0.954575730	-1.883892170	-0.257922980
H 	3.074180670	1.733861470	-1.421464920
C 	1.219992070	-4.074867910	-1.824380250
C 	4.531996900	0.858332300	-0.092792890
H 	2.678833430	3.982906640	-0.963927090
H 	1.367605760	-2.376211080	-3.152190150
C 	2.665250990	2.455820090	0.555752690
C 	2.436857600	2.195763080	1.917594580
C 	2.062374170	3.222948090	2.788929750
C 	1.911774780	4.530891030	2.312818590
C 	2.138863050	4.801924160	0.959992110
C 	2.510605550	3.769503150	0.090593860
H 	2.549487230	1.185054570	2.307107630
H 	1.885253730	3.003502060	3.840014300
H 	1.618496510	5.329741230	2.990937680
H 	2.021157200	5.814648880	0.578675660
C 	-0.723880040	-2.503010450	-2.618527510
C 	-1.075464850	-3.460968740	-3.780110810
H 	-2.098174830	-3.271356000	-4.130295300
H 	-1.020005370	-4.512691120	-3.477016560
H 	-0.397031440	-3.312972770	-4.630528210
C 	-0.979351600	-1.050486450	-3.084410470
H 	-0.342197630	-0.793483150	-3.937968830
H 	-2.028770920	-0.926131690	-3.380913780
H 	-0.766310600	-0.334747180	-2.284829680
C 	-1.627317770	-2.814979410	-1.404619730
H 	-1.506542450	-3.848841250	-1.059310110
H 	-2.682701370	-2.677026690	-1.672610890
O 	2.327832890	-0.239326390	-2.626305630
O 	-1.466423560	-1.153789430	2.815837790
C 	-1.025496750	-2.195661600	3.730054020
H 	-0.123768010	-1.877961180	4.263740450
H 	-0.811472140	-3.118922280	3.181631460
H 	-1.857283180	-2.338753280	4.422336940
C 	-3.549529730	3.115061940	1.579024590
C 	-2.162656180	2.440855220	1.501028940
C 	-1.245863790	3.243637540	0.552881780
C 	-1.544120330	2.421330660	2.917290300
H 	-0.539982790	1.985497230	2.906783300
H 	-3.452342760	4.106689550	2.039361230
H 	-4.244461440	2.526646930	2.192656800
H 	-3.997947970	3.254990910	0.589463380
H 	-1.155677700	4.276530340	0.910108360
H 	-1.647746980	3.279790860	-0.466206160
H 	-0.235210670	2.826351920	0.510971970
H 	-1.457675040	3.443216730	3.306395740
H 	-2.164840770	1.839641460	3.610351410
