70

C 	-2.348619040	0.950085011	0.991796984
C 	-1.040949914	0.243818172	0.932054521
C 	-0.570531106	-0.769409129	1.840322672
O 	0.543183719	-1.321308147	1.763721187
H 	0.995753102	-4.834619555	-2.550917014
H 	-2.985334080	0.453451911	1.733016545
H 	-0.332469236	0.505735668	0.150342151
H 	5.228932450	1.714083121	-0.233819109
H 	4.617270427	0.430939966	0.831996093
H 	0.737350760	-4.369292668	-0.858973143
H 	4.799105900	0.124539319	-0.916002953
C 	-3.041766681	0.849253488	-0.392411547
H 	-2.443935876	1.322734490	-1.177763631
H 	2.312350859	-4.094365738	-1.621917461
H 	-1.431763437	-2.160373370	-0.592336999
H 	-4.027448460	1.323629713	-0.370873817
H 	-3.177542988	-0.200760377	-0.669071802
N 	2.114258271	0.250419551	-0.380313958
C 	1.929036506	-0.565554679	-1.494605018
N 	1.199674836	-1.704693564	-1.218234780
C 	3.079036045	1.356678308	-0.419772003
H 	1.911335736	-0.166581881	0.525962589
C 	0.805327253	-2.669561399	-2.244526485
H 	0.931988864	-1.873711159	-0.251934035
H 	3.025069131	1.757128494	-1.436372018
C 	1.230997341	-4.079511078	-1.794880196
C 	4.525843729	0.875095621	-0.166876599
H 	2.659708404	4.003003187	-0.928563432
H 	1.382056902	-2.394240455	-3.134464870
C 	2.664457780	2.445893191	0.559889711
C 	2.455344306	2.159946701	1.919341156
C 	2.090827563	3.168835158	2.814656083
C 	1.936005212	4.485767787	2.366724031
C 	2.146237056	4.783102300	1.017401943
C 	2.506116938	3.768337078	0.123311503
H 	2.573250713	1.142102664	2.286840013
H 	1.927010125	2.927975387	3.862899256
H 	1.651216959	5.270800768	3.063766356
H 	2.023835536	5.802603204	0.657346223
C 	-0.713963111	-2.532160117	-2.631419975
C 	-1.041073296	-3.501037966	-3.790880936
H 	-2.059450263	-3.321404196	-4.157502626
H 	-0.982232274	-4.550049014	-3.480856386
H 	-0.351630196	-3.353044484	-4.632069078
C 	-0.973827207	-1.087071108	-3.113592337
H 	-0.332866776	-0.835879300	-3.965838442
H 	-2.021480549	-0.971434775	-3.418642776
H 	-0.769697501	-0.361375628	-2.321212170
C 	-1.632607826	-2.839723094	-1.428911992
H 	-1.510631074	-3.869407940	-1.073320873
H 	-2.684399406	-2.710352857	-1.713192497
O 	2.341297431	-0.266919162	-2.622532228
O 	-1.471626241	-1.098141119	2.823463767
C 	-1.028037858	-2.119126983	3.756228426
H 	-0.125757711	-1.790075957	4.281848899
H 	-0.812585657	-3.052872599	3.226952925
H 	-1.857613991	-2.249917024	4.453032156
C 	-3.563479513	3.115974707	1.606405846
C 	-2.175109238	2.448837622	1.508768074
C 	-1.265810481	3.271236971	0.572466672
C 	-1.548449759	2.404829669	2.920559068
H 	-0.541229377	1.977148308	2.894948260
H 	-3.467720613	4.100813550	2.080686694
H 	-4.251683390	2.515478648	2.215271135
H 	-4.018872820	3.268759129	0.622402232
H 	-1.163915633	4.292843941	0.956617781
H 	-1.679078798	3.338194802	-0.440092206
H 	-0.258922359	2.848919907	0.507107752
H 	-1.465590732	3.418899039	3.329514256
H 	-2.160056118	1.805578650	3.605863204
