68

C 	-1.638087227	1.087131784	1.751153380
C 	-0.615158232	0.263430520	1.384581449
C 	-0.241884811	-1.015331328	2.002758886
O 	0.800783845	-1.621187511	1.663060420
H 	0.614571268	-4.275346718	-3.415236377
H 	-2.181164624	0.891220523	2.677151814
H 	0.029811582	0.535469893	0.556395513
H 	5.317496471	1.642555848	-0.361080927
H 	4.861070350	0.146584849	0.483950867
H 	0.732882875	-4.249250063	-1.644616690
H 	4.765458090	0.228731910	-1.296878944
C 	-3.511206588	-0.144631557	0.707368195
H 	-3.351470834	0.230766765	-0.295146377
H 	2.106400730	-3.723056931	-2.630750293
H 	-1.336991398	-2.323174427	-0.404881575
H 	-4.330534779	0.259253541	1.291282645
H 	-3.170486219	-1.149948055	0.922826748
N 	2.205670135	0.174082969	-0.338607257
C 	1.819128096	-0.376500087	-1.554114230
N 	1.118992035	-1.558617684	-1.414862140
C 	3.158255074	1.284205213	-0.281965671
H 	2.079841622	-0.408122964	0.488018224
C 	0.513618127	-2.260791632	-2.545415297
H 	0.957232124	-1.903353883	-0.471424724
H 	2.952540766	1.897714217	-1.164807810
C 	1.013490524	-3.717628832	-2.562067158
C 	4.623402795	0.793462962	-0.369520050
H 	3.059764351	3.994764133	-0.102808673
H 	0.896848506	-1.748419151	-3.434691347
C 	2.937444342	2.128414020	0.966309907
C 	2.784390693	1.542595290	2.234045949
C 	2.652210392	2.336522801	3.376876569
C 	2.675635087	3.731915546	3.273428655
C 	2.821582306	4.326158610	2.016099285
C 	2.948520417	3.527585493	0.874344399
H 	2.764582702	0.460054485	2.339452210
H 	2.530430506	1.864229542	4.349539704
H 	2.573566620	4.349180435	4.163337174
H 	2.831605328	5.410153405	1.922191152
C 	-1.051425130	-2.101602391	-2.570315712
C 	-1.615741673	-2.741191587	-3.859132889
H 	-2.689269252	-2.531793493	-3.947004764
H 	-1.489974067	-3.829250956	-3.868378654
H 	-1.120521361	-2.331973062	-4.749093809
C 	-1.394463359	-0.594865090	-2.579007145
H 	-0.914066682	-0.085471973	-3.421888888
H 	-2.479852121	-0.453933804	-2.660946391
H 	-1.054433412	-0.108711779	-1.660742456
C 	-1.706169888	-2.763685513	-1.337983046
H 	-1.514880854	-3.842262825	-1.305628780
H 	-2.793291950	-2.619064208	-1.363734576
O 	2.055699128	0.162794589	-2.643992896
N 	-1.053740906	-1.540510654	2.976522476
H 	-1.960553177	-1.149316847	3.189864571
H 	-0.812363835	-2.448336400	3.353933240
C 	-3.234047551	3.021380755	1.365574927
C 	-1.775117839	2.523884382	1.251400854
C 	-1.276604117	2.696549432	-0.199239085
C 	-0.884270756	3.381280877	2.199515789
H 	0.161136739	3.071964324	2.136528756
H 	-3.274746499	4.101182427	1.180454084
H 	-3.638222677	2.837646820	2.369486960
H 	-3.886847228	2.530744709	0.637527210
H 	-1.409883169	3.738754918	-0.511897706
H 	-1.836388499	2.059920101	-0.892362239
H 	-0.213293912	2.456875668	-0.297959247
H 	-0.953731351	4.438934632	1.917044457
H 	-1.208697527	3.285920169	3.243343712
