29

H 	1.525810890	2.174241190	-0.826555640
C 	3.407820350	1.184341550	-0.515429370
C 	2.035068910	1.262962240	-0.530205910
C 	1.156506900	0.211393020	-0.077052750
O 	-0.098763440	0.280334080	-0.068582700
H 	3.864282640	0.216402390	-0.322153480
H 	4.595134080	2.392508560	1.684415230
H 	4.222874820	0.607234650	2.081249990
H 	2.864763380	1.878987300	2.141150860
C 	3.868898240	1.604002920	1.840885000
O 	1.767194020	-0.913170900	0.366401130
C 	0.882964050	-1.990812260	0.814678090
H 	0.236849910	-2.312427080	-0.006975850
H 	0.266704560	-1.647443040	1.650655950
H 	1.555074150	-2.791893890	1.124549130
C 	5.648247240	1.869460530	-1.328656040
C 	6.530606550	2.804905990	-1.872760800
C 	6.096162800	4.102124000	-2.166387460
C 	4.763250670	4.425542310	-1.904403510
C 	3.860602630	3.517629370	-1.367141620
C 	4.302890320	2.208419860	-1.074449460
H 	5.995400990	0.863829330	-1.099841820
H 	7.563788910	2.526993510	-2.068632640
H 	6.763798190	4.850307380	-2.585084880
F 	4.331895790	5.695905350	-2.186986110
H 	2.839576390	3.835356040	-1.173332600
Zn	-1.453191490	1.831056130	-0.421173690
Cl	-3.331637870	0.867828700	-0.798540490
Cl	-0.432767140	3.736459910	-0.234915340
