29

H 	1.547945366	1.984226339	-1.139439682
C 	3.426233568	1.131065457	-0.569074323
C 	2.061854703	1.126983971	-0.721296636
C 	1.193053410	0.091994287	-0.219280152
O 	-0.060599069	0.169723199	-0.188082015
H 	3.910618623	0.216660599	-0.236331982
H 	4.634489757	2.120252841	1.758809918
H 	3.339645483	0.852498931	2.204520769
H 	2.821485597	2.570751193	1.700274552
C 	3.594790968	1.815182085	1.775611691
O 	1.813512586	-1.015594082	0.246418990
C 	0.948762579	-2.061537212	0.788921979
H 	0.257026379	-2.414388688	0.019483132
H 	0.382313106	-1.676044167	1.641368954
H 	1.630737519	-2.854385454	1.097720273
C 	5.678223086	1.876199044	-1.296013623
C 	6.547583658	2.833450310	-1.821888003
C 	6.079058607	4.108118158	-2.156414308
C 	4.727878531	4.386751782	-1.949492729
C 	3.836907399	3.456504439	-1.435677386
C 	4.312536919	2.169987376	-1.106711045
H 	6.051078656	0.888485370	-1.034415209
H 	7.596888480	2.591098576	-1.971379923
H 	6.734037120	4.874788148	-2.560535075
F 	4.264382746	5.635631829	-2.260697950
H 	2.802303780	3.743722097	-1.271497891
Zn	-1.262802220	1.876181241	-0.113945836
Cl	-3.226845396	1.312977622	-0.754103669
Cl	-0.013294500	3.481193849	0.647870395
