24

C 	0.036959907	1.501200279	0.000000000
C 	0.000000000	0.000000000	0.000000000
H 	-0.634373331	-0.317236539	0.845686146
C 	-1.122493977	2.385322890	0.000000000
H 	0.992386443	2.018624421	0.044436220
O 	-0.992454825	3.617267979	0.131138149
C 	1.408807645	-0.602323876	0.208644267
H 	1.358527826	-1.695452375	0.251405188
H 	1.849986009	-0.234407674	1.142334535
H 	2.070909782	-0.324670761	-0.619862704
N 	-2.380883036	1.796564474	-0.086671707
H 	-3.144868491	2.448988974	-0.228978727
H 	-2.479511366	0.888827585	-0.529851007
C 	-1.823448848	-1.655821433	-3.586877475
C 	-2.220759706	-2.106930502	-2.324347492
C 	-1.638940063	-1.566248657	-1.171655937
C 	-0.654179260	-0.571330348	-1.264392613
C 	-0.265835019	-0.122142655	-2.537371387
C 	-0.843619896	-0.660655814	-3.689432037
H 	-2.982149912	-2.878873606	-2.234766558
H 	-1.950549262	-1.920272560	-0.189992159
H 	0.487991033	0.657860841	-2.622990030
H 	-0.532242558	-0.301848445	-4.668134939
H 	-2.274782633	-2.073423263	-4.483944355
