27

C 	0.697522670	-0.214510400	0.923957020
C 	1.142593170	-0.211126930	-0.369091920
C 	-1.068968920	-0.075499610	-1.488962110
H 	0.589095740	-1.149064470	1.472173120
C 	0.264281800	0.970478190	1.679905330
H 	-1.269641410	-1.138995990	-1.543567320
H 	1.320465430	0.750564930	-0.850795020
H 	-0.763047580	0.438406050	-2.394039150
H 	-1.583602810	0.493958560	-0.724196240
O 	-0.182331200	0.848323290	2.828033450
C 	0.380404860	2.351974070	1.034418470
H 	1.429034730	2.586696980	0.808874850
H 	-0.017537920	3.099463800	1.724819030
H 	-0.173420900	2.395347320	0.087566470
C 	1.742150540	-1.271774730	-2.593901490
C 	1.836131070	-1.387930120	-1.053203400
C 	1.282590700	-2.756423330	-0.598207450
C 	3.340868950	-1.288577600	-0.653194950
H 	3.462042420	-1.377960970	0.431935270
H 	2.394381230	-2.016159510	-3.066901090
H 	2.062782820	-0.278390120	-2.934054590
H 	0.721798920	-1.442024730	-2.950584230
H 	1.795526150	-3.562290650	-1.137071490
H 	0.209325470	-2.839413750	-0.803239640
H 	1.439237720	-2.922426790	0.473033790
H 	3.908859370	-2.092416160	-1.138990720
H 	3.770737830	-0.329429900	-0.968489050
