12
C4H7O optimized with ADF in AMS.
C        0.83162496671675      -0.24603446053348       0.86684421071850
C        0.81244730144466      -0.19134002715455      -0.49192395713207
C       -1.52845787169477      -0.46863869634292      -1.30850671958240
H        0.91100522005708      -1.19515102511022       1.39377164294711
C        0.72536117218974       0.95382626606060       1.69522544667628
H       -1.82804432761002      -1.26142088387477      -0.63382615978684
H        0.83152232410661       0.76726905651758      -1.00514824438440
H       -1.28617437320338      -0.72732014938008      -2.33337762298735
H       -1.86650261653799       0.53873356920945      -1.09704439785889
O        0.74613678328854       0.96137093547163       2.91793899082967
H        1.02394979334909      -1.06860341156309      -1.09388346809344
H        0.62671052789370       1.90956978669987       1.12378470865383
