33

H 	2.018083894	0.952063032	0.079299585
C 	0.000000000	0.000000000	0.000000000
C 	1.494455934	0.000000000	0.000000000
C 	2.305755474	-1.174838653	-0.000000000
O 	3.556838218	-1.091584265	0.258065281
H 	-0.318013784	-0.675524323	-0.814678540
H 	-1.680349221	1.371043589	-0.266165316
H 	-0.245267176	1.790950797	-1.234697876
C 	-0.585687433	1.403200341	-0.267605408
H 	-0.267648636	2.097272694	0.517609663
C 	2.751383449	-3.681539973	-0.270724188
C 	1.730447609	-2.539380886	-0.303205401
H 	3.218159340	-3.761189665	0.715931765
H 	3.549655731	-3.521884088	-1.002411054
H 	2.254164149	-4.630015682	-0.498560366
H 	0.920036121	-2.718217204	0.418457320
H 	1.233636876	-2.484295800	-1.284670254
O 	-2.311491496	-1.862814007	0.272421642
H 	-1.979278822	-1.402665370	-0.517236143
C 	-1.590724557	-1.472799755	1.386213385
C 	-2.012940381	-2.000228075	2.612650121
C 	-1.341969029	-1.659308792	3.788299217
C 	-0.248208562	-0.785645808	3.751621027
C 	0.171488485	-0.261772332	2.530117320
C 	-0.488136638	-0.593594238	1.329220019
H 	-2.869186498	-2.669913599	2.623234948
H 	-1.678447046	-2.076093985	4.734764449
H 	1.033690106	0.401371476	2.503130699
H 	0.277054151	-0.517345508	4.664080019
Al	4.488679133	0.369169827	1.005111299
F 	4.302396682	1.586102321	-0.148617105
F 	6.038216393	-0.203025622	1.257265302
F 	3.557351852	0.673746549	2.383420170
