33

H 	1.466276950	2.130310950	0.935268660
C 	3.569515270	1.483287070	0.584391920
C 	2.081685460	1.318231310	0.549388350
C 	1.389824430	0.236976050	-0.067855100
O 	0.121176130	0.297438530	-0.246971840
H 	4.021130950	0.500673440	0.795120060
H 	5.122357460	2.583450410	1.651590400
H 	3.733005310	2.121689230	2.668512650
C 	4.032716320	2.472795400	1.673876400
H 	3.587159760	3.459417840	1.506606760
C 	1.215050060	-2.103418700	-1.108313280
C 	2.118631290	-1.007587050	-0.531402000
H 	0.665770980	-1.739971430	-1.982535440
H 	0.479584050	-2.439997310	-0.370273720
H 	1.823242860	-2.962957990	-1.411100050
H 	2.864721780	-0.689415620	-1.275891140
H 	2.705218330	-1.392939010	0.317633090
O 	5.694528030	0.185000680	-1.105444710
H 	5.437910170	-0.006898780	-0.186507970
C 	4.974567950	1.265883940	-1.579935410
C 	5.301083380	1.702478550	-2.870396900
C 	4.622247660	2.782085680	-3.436596460
C 	3.616272410	3.443545440	-2.717918200
C 	3.297408500	3.013348000	-1.433473740
C 	3.969855460	1.926108980	-0.834031110
H 	6.089491410	1.183299950	-3.410069040
H 	4.879965130	3.106991180	-4.442306090
H 	2.498963550	3.511266150	-0.889111340
H 	3.078614590	4.278857370	-3.158282510
Al	-1.022073580	1.794581850	-0.088552700
F 	-0.837429000	2.256488030	1.526612650
F 	-2.526103020	1.216396790	-0.536895780
F 	-0.279506520	2.894599520	-1.135756700
