29

H 	 -1.363787	 -1.638428	 -0.023483
C 	  0.000000	  0.000000	  0.000000
C 	 -1.242484	 -0.559618	  0.000000
C 	 -2.493319	  0.143721	  0.000000
O 	 -3.610621	 -0.352150	 -0.036461
H 	  0.075015	  1.082115	  0.088903
H 	  0.632030	 -0.206358	 -2.900413
H 	  0.419120	  1.592136	 -2.428118
H 	 -1.077026	  0.504134	 -2.682849
C 	 -0.005113	  0.605400	 -2.571849
Br	 -2.432023	  2.141835	  0.038818
C 	  1.464255	 -0.833461	  1.770027
C 	  1.282830	 -0.774780	  0.217196
C 	  2.491837	 -0.019504	 -0.383597
C 	  1.223186	 -2.211343	 -0.344627
H 	  1.016530	 -2.207047	 -1.420526
H 	  2.402966	 -1.350667	  2.002060
H 	  0.637198	 -1.376079	  2.238930
H 	  1.510022	  0.171965	  2.203978
H 	  3.422609	 -0.510348	 -0.077698
H 	  2.524487	  1.018965	 -0.032403
H 	  2.457158	 -0.010682	 -1.476889
H 	  2.185059	 -2.710599	 -0.183212
H 	  0.453132	 -2.813436	  0.148963
Ti	 -4.493303	 -2.454909	 -0.404585
Cl	 -3.278072	 -2.286594	 -2.288596
Cl	 -6.411904	 -1.349286	 -0.270850
Cl	 -3.415192	 -2.931158	  1.504991
Cl	 -5.309208	 -4.489926	 -0.787772
