29

H 	1.832527227	2.381340342	1.583319675
C 	2.916544560	1.565481890	-0.061123506
C 	1.885285211	1.602157087	0.828874896
C 	0.803294407	0.663720302	0.917802748
O 	-0.104894775	0.670845969	1.736779252
H 	2.895195933	0.805282457	-0.839676305
H 	5.003274390	0.319308152	1.655574324
H 	4.509445877	-0.871612658	0.298807202
H 	3.417673221	-0.649585329	1.797414730
C 	4.261417241	-0.326007866	1.201623318
Br	0.765356389	-0.833865940	-0.406401671
C 	3.240530870	3.651672046	-1.291790094
C 	3.912349451	2.689313133	-0.257301132
C 	5.228603655	2.158777137	-0.873010876
C 	4.210895377	3.465513207	1.043199471
H 	4.609178795	2.801042740	1.817881513
H 	3.928548584	4.476203493	-1.513824427
H 	2.310153213	4.066641162	-0.891133129
H 	3.013281418	3.132252648	-2.229793295
H 	5.869645574	3.001381729	-1.155715088
H 	5.033209527	1.563939992	-1.773461416
H 	5.781416663	1.535759362	-0.163915670
H 	4.955498708	4.244479131	0.844986704
H 	3.317621681	3.958029663	1.441472252
Ti	-0.582443690	1.806097248	3.691105945
Cl	1.442991085	1.019128282	4.268088972
Cl	-2.314233646	0.420066422	3.724827250
Cl	-0.671664653	3.571970794	2.309315257
Cl	-0.997845654	2.902036104	5.583243169
