26

H 	0.487156032	-2.103783841	-0.084614844
C 	0.000000000	0.000000000	0.000000000
C 	-0.294130050	-1.352029741	0.000000000
C 	-1.631751839	-1.804968964	0.000000000
O 	-1.996604349	-3.001432313	-0.242093453
H 	-0.831799347	0.695042845	0.120737055
H 	-0.219975929	-0.776438099	-2.716583485
H 	0.747266658	0.821683724	-2.609670862
H 	-1.108796677	0.844803925	-2.447930386
C 	-0.182122802	0.281236542	-2.476715611
H 	-2.434870441	-1.082510169	0.211838774
C 	3.854479262	1.797142917	0.403163042
C 	3.755704927	0.412598787	0.203548583
C 	2.508760525	-0.190763793	0.064963476
C 	1.329791268	0.586074053	0.123675165
C 	1.444914417	1.979641091	0.321755220
C 	2.694580968	2.579442356	0.464343817
H 	4.656031236	-0.195286609	0.156069270
H 	2.448650873	-1.263849931	-0.093347712
H 	0.541967844	2.586095454	0.364700815
H 	2.767143246	3.652923045	0.621790841
H 	4.831587259	2.262650267	0.509578909
Al	-0.913062448	-4.261470051	-1.135357498
F 	-0.530695639	-3.385799475	-2.533557775
F 	-1.871462973	-5.616144961	-1.333707036
F 	0.443215639	-4.435775101	-0.142644754
