26

H 	  0.487156	 -2.103784	 -0.084615
C 	  0.000000	  0.000000	  0.000000
C 	 -0.294130	 -1.352030	 -0.000000
C 	 -1.631752	 -1.804969	 -0.000000
O 	 -1.996604	 -3.001432	 -0.242093
H 	 -0.831799	  0.695043	  0.120737
H 	 -0.219976	 -0.776438	 -2.716583
H 	  0.747267	  0.821684	 -2.609671
H 	 -1.108797	  0.844804	 -2.447930
C 	 -0.182123	  0.281237	 -2.476716
H 	 -2.434870	 -1.082510	  0.211839
C 	  3.854479	  1.797143	  0.403163
C 	  3.755705	  0.412599	  0.203549
C 	  2.508761	 -0.190764	  0.064963
C 	  1.329791	  0.586074	  0.123675
C 	  1.444914	  1.979641	  0.321755
C 	  2.694581	  2.579442	  0.464344
H 	  4.656031	 -0.195287	  0.156069
H 	  2.448651	 -1.263850	 -0.093348
H 	  0.541968	  2.586095	  0.364701
H 	  2.767143	  3.652923	  0.621791
H 	  4.831587	  2.262650	  0.509579
Al	 -0.913062	 -4.261470	 -1.135357
F 	 -0.530696	 -3.385799	 -2.533558
F 	 -1.871463	 -5.616145	 -1.333707
F 	  0.443216	 -4.435775	 -0.142645
