26

H 	-0.519232300	-1.552462780	-0.022578020
C 	-1.397869910	0.413047660	0.097334610
C 	-0.366752870	-0.476351960	-0.048697270
C 	0.964072690	-0.008911890	-0.223332990
O 	1.984579610	-0.739378620	-0.391784530
H 	-1.159946970	1.478041030	0.061237980
H 	-1.072998170	-0.160566530	3.129523300
H 	-2.350264750	1.212788050	3.154176390
H 	-0.523126070	1.630601680	3.052283040
C 	-1.317985100	0.893301010	3.072382090
H 	1.137555870	1.079296570	-0.213391240
C 	-5.556660720	-0.448828990	0.475501830
C 	-4.633284440	-1.505540790	0.446326890
C 	-3.271783230	-1.244148400	0.325008590
C 	-2.804721300	0.089041780	0.233261730
C 	-3.748752320	1.142766980	0.265205800
C 	-5.111278630	0.876354780	0.382249030
H 	-4.981172280	-2.533613060	0.518511680
H 	-2.567114510	-2.071211040	0.306814440
H 	-3.397656030	2.171028100	0.197492820
H 	-5.826743200	1.695421690	0.402018820
H 	-6.619826760	-0.659744850	0.569643600
Al	2.068958650	-2.625531750	-0.567559600
F 	0.995581100	-3.160048040	0.629552920
F 	3.681998990	-2.987873450	-0.308235320
F 	1.462915770	-2.863128730	-2.119214100
