26

H 	0.436564071	-1.796310466	-0.187187745
C 	-0.800097263	-0.027712543	-0.409587524
C 	0.396239078	-0.715631667	-0.304973987
C 	1.624624855	-0.012041205	-0.324114268
O 	2.751239413	-0.587489259	-0.211429808
H 	-0.736037885	1.040702701	-0.617668628
H 	-1.520164735	-0.235682750	2.282992881
H 	-1.903362674	1.489766921	1.692239008
H 	-0.155364774	1.032898589	2.168069953
C 	-1.169935637	0.729563568	1.936676971
H 	1.608019245	1.084175090	-0.435109021
C 	-4.729974838	-1.657768433	-0.859835399
C 	-3.668208849	-2.503481859	-0.505437902
C 	-2.381932453	-1.990342419	-0.353213660
C 	-2.130358863	-0.614190726	-0.550798693
C 	-3.211296683	0.224932591	-0.904935237
C 	-4.496153655	-0.292055952	-1.063769631
H 	-3.847784477	-3.564986316	-0.350185345
H 	-1.570844539	-2.658078422	-0.074970626
H 	-3.030917800	1.287498531	-1.059185574
H 	-5.315561868	0.366618594	-1.342687173
H 	-5.732886367	-2.062759083	-0.977062747
Al	4.409569204	0.327566926	-0.167821025
F 	5.086953130	-0.157485845	1.289121143
F 	3.868628057	1.932330806	-0.200204249
F 	5.192434397	-0.180342668	-1.562527973
