26

H 	0.426178508	-1.787450581	-0.200397490
C 	-0.806659790	-0.015564206	-0.395897597
C 	0.387450297	-0.705437163	-0.302171185
C 	1.617693234	-0.007115629	-0.320275929
O 	2.739596755	-0.592334475	-0.224805836
H 	-0.743613810	1.055605426	-0.588035909
H 	-1.240081138	-0.316329744	2.348978980
H 	-2.057053272	1.266931188	1.800454225
H 	-0.214852562	1.224362241	2.113411086
C 	-1.152216880	0.697482599	1.977308988
H 	1.608413157	1.089774238	-0.419347663
C 	-4.727308607	-1.644382368	-0.887024099
C 	-3.671285928	-2.489551905	-0.517733037
C 	-2.387859758	-1.976688179	-0.348313007
C 	-2.134843108	-0.600947951	-0.542983505
C 	-3.210256081	0.238298616	-0.908943000
C 	-4.492507777	-0.278225457	-1.083902483
H 	-3.853255584	-3.550467902	-0.363409677
H 	-1.580602031	-2.643634640	-0.058373095
H 	-3.026518663	1.300500651	-1.059763012
H 	-5.308175800	0.380167925	-1.372868542
H 	-5.727610071	-2.050080036	-1.019305545
Al	4.401329343	0.313720825	-0.187883911
F 	5.011490237	-0.053721199	1.331121020
F 	3.876937451	1.912926226	-0.363882405
F 	5.238999977	-0.308143790	-1.499563629
