26

H 	-0.617282522	-1.566524578	-0.205094260
C 	-1.485298493	0.405636259	-0.007660813
C 	-0.470391559	-0.489174937	-0.213053461
C 	0.852265416	-0.019814493	-0.437075233
O 	1.875350416	-0.743749296	-0.599376213
H 	-1.240587656	1.469020791	-0.043409546
H 	-1.061624290	-0.234013673	3.008193063
H 	-2.078030956	1.337680344	3.117579870
H 	-0.205009157	1.432738928	3.023627326
C 	-1.117449181	0.847665762	3.013845271
H 	1.016526263	1.069272336	-0.473457124
C 	-5.613068714	-0.420734685	0.650534574
C 	-4.708183799	-1.485832055	0.526686623
C 	-3.356872464	-1.236902634	0.310828581
C 	-2.881816660	0.092893190	0.216438903
C 	-3.806722023	1.154988128	0.344565180
C 	-5.159373159	0.901096157	0.557358918
H 	-5.062966584	-2.510984886	0.599851645
H 	-2.665984350	-2.070118292	0.217684981
H 	-3.448135421	2.180203512	0.275973034
H 	-5.860199377	1.727043031	0.651859664
H 	-6.668374519	-0.622538106	0.819466298
Al	2.177694044	-2.607546146	-0.505399646
F 	0.622344297	-3.281650111	-0.520802470
F 	2.951803909	-2.762880576	0.974705308
F 	3.079879660	-2.921425520	-1.880137983
