24

H 	-1.346534219	-1.631615470	0.103403119
C 	0.000000000	0.000000000	0.000000000
C 	-1.218864933	-0.557953922	0.000000000
C 	-2.497833813	0.190601355	0.000000000
O 	-3.529046230	-0.263547593	0.540518535
H 	0.086488326	1.089999777	-0.025947813
C 	1.166675962	-2.254714331	0.135315950
C 	1.325966806	-0.722108443	0.097019908
C 	2.032523671	-0.240083055	1.393710010
C 	2.183391692	-0.314567036	-1.131486822
H 	2.313414355	0.773710993	-1.181442803
H 	2.152439385	-2.728549966	0.204556467
H 	0.676722943	-2.628995584	-0.771104418
H 	0.577879071	-2.575237222	1.001780013
H 	3.025416290	-0.699091335	1.472895250
H 	1.451049140	-0.518232578	2.279574550
H 	2.160345476	0.849422883	1.394728150
H 	3.178009777	-0.771520274	-1.063715241
H 	1.714547462	-0.648633219	-2.064367486
N 	-2.525355880	1.417412048	-0.601443794
H 	-3.409861836	1.911480639	-0.630217733
H 	-1.784778605	1.711101381	-1.223912171
I 	-3.384381265	-2.351661138	2.251789858
I 	-3.241565780	-4.478503088	4.055105786
