24

H 	2.262919950	0.600234250	0.191110000
C 	4.166194560	-0.322435290	0.324786070
C 	2.826164500	-0.325459010	0.271631030
C 	1.975628840	-1.538694230	0.192129390
O 	0.856300650	-1.526807240	-0.364907010
H 	4.701732910	-1.276719220	0.327624110
C 	4.284273090	2.218757800	0.314901740
C 	5.071327030	0.892816340	0.328091030
C 	5.980307940	0.813038780	-0.930509220
C 	5.961466830	0.822948810	1.600619090
H 	6.540511020	-0.108882930	1.629207970
H 	4.981159870	3.064807430	0.319903460
H 	3.638510120	2.309089360	1.196839570
H 	3.657200910	2.303331020	-0.580100980
H 	6.685729800	1.653161440	-0.936346730
H 	5.381057550	0.857645990	-1.847278250
H 	6.559928770	-0.118515410	-0.943027080
H 	6.668470700	1.661684200	1.609446850
H 	5.350898540	0.877831660	2.510119320
N 	2.454388010	-2.696802500	0.738619440
H 	1.859246960	-3.517228380	0.710077560
H 	3.243184760	-2.690450250	1.372033870
I 	0.164819760	0.497932910	-2.018649100
I 	-0.546351440	2.549761640	-3.770346850
