24

H 	2.262334495	0.594467012	0.199348464
C 	4.166528262	-0.323313448	0.332542954
C 	2.827075241	-0.329824256	0.279935758
C 	1.984591151	-1.545482021	0.187777439
O 	0.879972198	-1.540912653	-0.396693853
H 	4.703883222	-1.275942651	0.333073307
C 	4.276908000	2.216556803	0.325103526
C 	5.066521996	0.892846485	0.329761864
C 	5.960435389	0.816012875	-0.938304278
C 	5.967259121	0.824016865	1.592469801
H 	6.542382658	-0.109929636	1.619440393
H 	4.972467307	3.063457250	0.324171999
H 	3.639859437	2.305753778	1.212769752
H 	3.642096951	2.301780468	-0.563675712
H 	6.669097169	1.652956715	-0.949173844
H 	5.350895876	0.866860364	-1.847211251
H 	6.536069827	-0.117490572	-0.962365590
H 	6.677906340	1.659268084	1.593031118
H 	5.365271229	0.884354130	2.506609533
N 	2.454000644	-2.697987271	0.752527785
H 	1.860269849	-3.518709798	0.718165379
H 	3.224466366	-2.683252901	1.407005037
I 	0.196395052	0.495284422	-2.038710731
I 	-0.501616151	2.570277126	-3.771623573
