23

H 	1.924969715	0.925709747	0.005321971
C 	0.000000000	0.000000000	0.000000000
C 	1.357229996	0.000000000	0.000000000
C 	2.199472511	-1.169956438	0.000000000
O 	3.418902535	-1.181544736	0.010204107
H 	-0.504491501	-0.965334727	-0.001683323
C 	-2.635667592	3.353691419	0.029434999
C 	-1.249153029	3.570699950	0.011604580
C 	-0.370384815	2.492934568	0.001272481
C 	-0.862974820	1.166315545	0.006741324
C 	-2.262457926	0.965690947	0.023227923
C 	-3.140138131	2.048388905	0.035463979
H 	-0.858931270	4.585634349	0.007011796
H 	0.700170398	2.677289785	-0.011789243
H 	-2.650564268	-0.050893667	0.028129071
H 	-4.213825264	1.877271160	0.048931520
H 	-3.317372172	4.201072885	0.038611964
Br	1.306261508	-2.957652820	-0.019594123
Ti	5.156072354	0.398393495	0.046494034
Cl	6.783065904	1.912614887	0.075593036
Cl	4.197041375	1.024580830	-1.879909997
Cl	4.142035960	1.006882629	1.949743938
Cl	6.397021704	-1.438207405	0.062124624
