27

H 	  1.908970	  0.932419	 -0.007450
C 	  0.000000	  0.000000	  0.000000
C 	  1.350489	  0.000000	  0.000000
C 	  2.153187	 -1.209410	  0.000000
O 	  3.414419	 -1.147155	  0.058809
H 	 -0.531645	 -0.954036	 -0.002342
C 	 -0.120131	  2.538772	  0.015704
C 	 -0.897129	  1.207952	  0.009891
C 	 -1.792698	  1.110805	  1.279112
C 	 -1.800772	  1.126241	 -1.254265
H 	 -2.369873	  0.189060	 -1.279278
H 	 -0.825637	  3.376827	  0.017370
H 	  0.518413	  2.636606	 -0.869103
H 	  0.513178	  2.629927	  0.905064
H 	 -2.504695	  1.944170	  1.288157
H 	 -1.186543	  1.164316	  2.190115
H 	 -2.363254	  0.174336	  1.295413
H 	 -2.514124	  1.958419	 -1.247807
H 	 -1.201070	  1.193126	 -2.168776
C 	  1.541816	 -2.586331	 -0.065390
H 	  2.336956	 -3.333877	 -0.071692
H 	  0.926345	 -2.692676	 -0.966408
H 	  0.890085	 -2.753968	  0.800736
Al	  4.592220	  0.323038	  0.295164
F 	  4.275513	  0.748826	  1.890771
F 	  4.018984	  1.459276	 -0.814048
F 	  6.096794	 -0.325906	 -0.036784
