33

H 	1.940000594	-0.877466344	-0.028813393
C 	0.000000000	0.000000000	0.000000000
C 	0.872293693	-1.060335692	0.000000000
C 	0.472381639	-2.442287523	0.000000000
O 	1.309347569	-3.379567288	-0.140054009
H 	-1.063812129	-0.193410518	0.115996605
H 	0.540651920	0.287257286	-2.708619891
H 	-1.152007942	1.009358663	-2.383315808
H 	-0.937557776	-0.835752211	-2.593780270
C 	-0.500909973	0.145706439	-2.449219244
C 	-1.230563085	-4.353045830	0.175091785
C 	-0.988214317	-2.839548179	0.169217987
H 	-0.690334014	-4.834482790	0.995975430
H 	-0.886764888	-4.811223104	-0.757186862
H 	-2.300046906	-4.558489831	0.293076007
H 	-1.359649097	-2.380619498	1.096635296
H 	-1.555496050	-2.362290916	-0.644473366
C 	-0.612765784	2.364196137	0.407253843
C 	-0.290238492	3.714017614	0.551875742
C 	1.032329094	4.144456853	0.404937531
C 	2.007102044	3.188935134	0.115294976
C 	1.719848140	1.840031309	-0.028542788
C 	0.385057877	1.408688165	0.121037323
H 	-1.644405792	2.037992440	0.519413122
H 	-1.068591734	4.438315838	0.778558158
H 	1.312669421	5.189005802	0.506861259
F 	3.300378785	3.602499758	-0.035990772
H 	2.525223683	1.150120131	-0.260550345
Sn	3.547601976	-3.415753963	-0.820089145
Cl	3.104159533	-5.737798702	-0.791536249
Cl	3.962504918	-2.279279719	1.238871643
Cl	5.823737957	-3.509325195	-1.558960885
Cl	2.723257798	-2.118739732	-2.659919702
