33

H 	1.681513050	2.173977370	-0.672287930
C 	3.497268100	1.070385470	-0.694342440
C 	2.133719240	1.194623060	-0.575971600
C 	1.228823290	0.116711720	-0.272882550
O 	-0.004553380	0.318860410	-0.074116360
H 	3.941610930	0.077279860	-0.687603310
H 	3.715261020	2.125158510	1.860460830
H 	5.232726170	1.084197480	1.537917880
H 	3.633266550	0.276942870	2.068467040
C 	4.164372570	1.151130820	1.708793170
C 	0.628688950	-2.346960960	0.150089180
C 	1.724287330	-1.321268750	-0.168120950
H 	-0.142905130	-2.352819950	-0.626346220
H 	0.137551620	-2.117598090	1.101042870
H 	1.066036790	-3.349669710	0.215026060
H 	2.231217660	-1.573052760	-1.111348590
H 	2.509389820	-1.345314030	0.603433990
C 	5.731396100	1.831729010	-1.456118980
C 	6.622226920	2.826637790	-1.862013770
C 	6.214356950	4.164235950	-1.916538900
C 	4.899701780	4.467590470	-1.557131570
C 	3.989476140	3.500601420	-1.154594620
C 	4.403017490	2.151317010	-1.101896330
H 	6.059434040	0.794804800	-1.413131870
H 	7.641259380	2.564510430	-2.136966700
H 	6.888643250	4.958024230	-2.226408990
F 	4.494015790	5.774820390	-1.601222440
H 	2.983334450	3.804228370	-0.882043100
Sn	-1.294079460	2.269532440	0.075996080
Cl	-2.941350100	0.673174950	0.652488690
Cl	-0.672652280	2.539890730	-2.216978650
Cl	-2.642222460	4.243376300	0.233607830
Cl	0.300316850	2.892301840	1.756160790
