22

H 	  1.951036	  0.908919	 -0.002542
C 	  0.000000	  0.000000	  0.000000
C 	  1.362461	  0.000000	  0.000000
C 	  2.058400	 -1.251821	  0.000000
O 	  3.294252	 -1.435001	 -0.005244
H 	 -0.492872	 -0.973963	  0.001503
C 	 -2.738082	  3.264741	 -0.016187
C 	 -3.199090	  1.947195	 -0.021365
C 	 -2.289036	  0.896035	 -0.015433
C 	 -0.898354	  1.137667	 -0.003783
C 	 -0.451451	  2.477648	  0.002511
C 	 -1.363186	  3.524242	 -0.003238
H 	 -4.266285	  1.740895	 -0.031064
H 	 -2.650231	 -0.129779	 -0.020930
H 	  0.610778	  2.700173	  0.011016
H 	 -1.004487	  4.550346	  0.001134
H 	 -3.446433	  4.089679	 -0.021099
H 	  1.441598	 -2.165326	  0.004185
B 	  4.505120	 -0.202335	 -0.014846
F 	  4.263818	  0.502639	  1.142263
F 	  4.249177	  0.502048	 -1.169258
F 	  5.645230	 -0.942777	 -0.022978
