22

H 	1.951035542	0.908918858	-0.002542101
C 	0.000000000	0.000000000	0.000000000
C 	1.362460632	-0.000000000	0.000000000
C 	2.058399646	-1.251821143	-0.000000000
O 	3.294251949	-1.435001178	-0.005244473
H 	-0.492871501	-0.973963110	0.001503195
C 	-2.738082342	3.264741236	-0.016187286
C 	-3.199090414	1.947194683	-0.021364741
C 	-2.289035654	0.896034559	-0.015432578
C 	-0.898353734	1.137666886	-0.003782923
C 	-0.451450984	2.477647527	0.002511070
C 	-1.363186442	3.524241652	-0.003238080
H 	-4.266284537	1.740895223	-0.031064154
H 	-2.650231371	-0.129778720	-0.020929923
H 	0.610777644	2.700172725	0.011015676
H 	-1.004487216	4.550346341	0.001133682
H 	-3.446433474	4.089679103	-0.021098721
H 	1.441598304	-2.165326026	0.004185079
B 	4.505119501	-0.202334917	-0.014846130
F 	4.263818054	0.502638787	1.142263333
F 	4.249177403	0.502048272	-1.169257640
F 	5.645229804	-0.942776979	-0.022978033
