22

H 	-0.270647779	0.162066018	-0.390243860
C 	-0.225699550	-1.930756466	0.110508926
C 	0.288202832	-0.672613589	0.014177119
C 	1.627345949	-0.431713322	0.461446679
O 	2.252841249	0.649622674	0.441916214
H 	0.425548149	-2.698153852	0.533009105
C 	-4.060787844	-3.414830518	-1.005517178
C 	-3.099723454	-4.264477834	-0.455118373
C 	-1.854437583	-3.760208377	-0.097140890
C 	-1.541711499	-2.396005507	-0.280637549
C 	-2.527774524	-1.551948713	-0.837914537
C 	-3.769830163	-2.059197069	-1.193794796
H 	-3.321492617	-5.318211074	-0.306721806
H 	-1.106524128	-4.424125319	0.330205817
H 	-2.321422955	-0.497844761	-0.993488755
H 	-4.518549204	-1.397728775	-1.622110769
H 	-5.035779199	-3.805227888	-1.287101418
H 	2.178929747	-1.293584312	0.871185974
B 	1.652693691	2.161365288	-0.141363914
F 	0.557837705	2.408250001	0.655162876
F 	1.346934495	1.908188972	-1.459218624
F 	2.722348302	2.974837214	0.064243760
