29

H 	2.024774522	0.946378068	-0.039956226
C 	0.000000000	0.000000000	0.000000000
C 	1.497868462	-0.000000000	-0.000000000
C 	2.344946779	-1.168971474	-0.000000000
O 	3.613686294	-1.083127887	0.052836535
H 	-0.329357897	-0.421145046	-0.968554299
H 	-1.644636738	1.436118174	0.041545489
H 	-0.163191559	2.057987995	-0.726235480
C 	-0.551488612	1.443184046	0.093709966
H 	-0.255509343	1.902407867	1.043199274
N 	1.792909965	-2.408056428	-0.089909534
H 	0.801630794	-2.549487260	0.070854553
H 	2.416876638	-3.203344228	-0.008676718
C 	-1.695164529	-2.517284910	3.108318213
C 	-0.673488936	-1.609498462	3.414749899
C 	-0.125232472	-0.803537225	2.414792027
C 	-0.592577177	-0.894532936	1.092798249
C 	-1.615806605	-1.806101637	0.792719320
C 	-2.166074943	-2.614172996	1.795346160
H 	-0.298885205	-1.533732058	4.433074704
H 	0.681574982	-0.114210673	2.655023939
H 	-1.987577479	-1.880709817	-0.228542331
H 	-2.960249942	-3.315739996	1.549410998
H 	-2.119105963	-3.145889065	3.888065745
Ti	5.035711155	0.397962163	0.605302857
Cl	6.468946210	2.007279595	1.249424164
Cl	6.526136578	-1.265412737	0.560711869
Cl	4.489885857	1.399174798	-1.345671744
Cl	3.686048320	0.677444504	2.424829153
