29

H 	1.506352100	1.863763520	1.290458310
C 	3.534690690	1.470526500	0.433003920
C 	2.040434860	1.361315820	0.491575790
C 	1.211655360	0.583773300	-0.400261480
O 	-0.058543000	0.576119060	-0.308454210
H 	3.947860990	0.474145170	0.680288770
H 	5.151130120	2.507758910	1.474404630
H 	3.732087790	2.173278630	2.498199640
C 	4.057113910	2.470803490	1.494286060
H 	3.675532370	3.477167830	1.288032040
N 	1.789794380	-0.199761920	-1.350098990
H 	2.765937460	-0.080364230	-1.600114060
H 	1.175781090	-0.673505590	-2.004309190
C 	5.059344920	2.534299030	-3.495430010
C 	3.990943370	3.247780810	-2.936380040
C 	3.491431800	2.897700290	-1.679417370
C 	4.057213930	1.829243750	-0.962588080
C 	5.124044160	1.116017920	-1.530281070
C 	5.625435980	1.467198020	-2.790519470
H 	3.544084200	4.076315950	-3.482091110
H 	2.651712530	3.446354860	-1.256632800
H 	5.572589170	0.289257190	-0.979901470
H 	6.456982400	0.909331300	-3.216457620
H 	5.447439940	2.809444320	-4.473882790
Ti	-1.547193520	1.786240240	0.611646160
Cl	-3.050967320	3.146064710	1.587600320
Cl	-3.008592820	0.634168040	-0.625549520
Cl	-0.833919090	0.870514150	2.552635150
Cl	-0.379224240	3.516105000	-0.316442800
