33

H 	2.004244210	0.856628208	0.450841438
C 	0.000000000	0.000000000	0.000000000
C 	1.505003758	0.000000000	-0.000000000
C 	2.302152656	-1.221995231	-0.000000000
O 	3.151809634	-1.425477868	0.930215106
H 	-0.385517578	-0.731032094	-0.720662436
H 	-1.679645742	1.363818744	-0.252800172
H 	-0.315642666	1.679930833	-1.352991856
C 	-0.587334312	1.383204838	-0.333080947
H 	-0.207301808	2.149924318	0.350424734
N 	2.116532510	-2.181302390	-0.945355869
C 	2.776607003	-3.485725482	-0.801135173
C 	1.464008285	-1.924075638	-2.232029213
H 	2.998671250	-3.662324836	0.251284492
H 	3.712591278	-3.515876617	-1.375629937
H 	2.103448184	-4.262741418	-1.180261462
H 	0.543087753	-2.513372483	-2.330446184
H 	2.145525653	-2.207167967	-3.044565218
H 	1.233197758	-0.862653076	-2.329791417
C 	-0.205434358	0.266045149	2.546014994
C 	-0.499634685	-0.237969370	3.814140018
C 	-0.965999150	-1.545293429	3.920356703
C 	-1.141345663	-2.362428214	2.807574037
C 	-0.842199074	-1.842357994	1.546379366
C 	-0.387033706	-0.523188360	1.394793595
H 	0.187208316	1.274730091	2.463407067
H 	-0.349202264	0.358906467	4.708792622
F 	-1.255337817	-2.045757131	5.156627384
H 	-1.494445781	-3.381731184	2.935661736
H 	-0.967649968	-2.472339251	0.667783768
Zn	2.948147236	-0.683709601	2.848162306
Cl	2.599681860	-2.410520963	4.092527454
Cl	3.231954422	1.470936391	2.878271862
