33

H 	1.464921200	1.891961210	1.111926990
C 	3.492573370	1.138209720	0.583635520
C 	1.995848750	1.032248170	0.704130970
C 	1.178052530	0.171796630	-0.146025320
O 	0.227821590	0.677760730	-0.833937250
H 	3.935056860	0.147991940	0.419139910
H 	5.212326860	1.896807900	1.690370940
H 	3.973112820	1.124975450	2.710839420
C 	4.134173530	1.766799020	1.836044550
H 	3.696522980	2.746811250	2.055972500
N 	1.444527830	-1.157166850	-0.261075110
C 	0.739374710	-1.960465020	-1.270598930
C 	2.241647370	-1.904287410	0.718147580
H 	0.396979380	-1.308512340	-2.074742520
H 	-0.127326300	-2.470761640	-0.827903400
H 	1.431471840	-2.713969320	-1.663825200
H 	3.147273270	-2.315770940	0.253757150
H 	1.642857540	-2.737198440	1.110290330
H 	2.517153350	-1.255492930	1.550839190
C 	3.457691950	3.317363110	-0.785244150
C 	3.641959030	4.023568490	-1.976661470
C 	4.091901290	3.334058360	-3.100519250
C 	4.354432520	1.966720320	-3.072534800
C 	4.165689580	1.276035290	-1.872427210
C 	3.733996150	1.938654340	-0.711776640
H 	3.080525450	3.848676130	0.083875930
H 	3.422138930	5.085209560	-2.042854540
F 	4.277383270	4.019587740	-4.270208950
H 	4.690130420	1.460907530	-3.973702270
H 	4.363060300	0.205820440	-1.838269100
Zn	0.258175670	2.644584900	-1.472368370
Cl	0.526824460	2.555926340	-3.612598870
Cl	-0.043943320	4.001886280	0.200095310
