33

H 	1.473590656	1.886659929	1.166325258
C 	3.503200246	1.142367341	0.636440174
C 	2.006585048	1.032465145	0.750898770
C 	1.198665184	0.198358036	-0.132418576
O 	0.253819766	0.722542090	-0.811477131
H 	3.952918808	0.152094577	0.496800861
H 	5.216931292	1.936539137	1.721583655
H 	3.979653430	1.191487550	2.763166397
C 	4.139354693	1.807338612	1.870247641
H 	3.699425152	2.792094028	2.060463963
N 	1.470283182	-1.124265461	-0.291520843
C 	0.782547964	-1.889779363	-1.339865388
C 	2.257083896	-1.902873088	0.668789815
H 	0.449337450	-1.208708666	-2.122936567
H 	-0.088446783	-2.419117944	-0.929757224
H 	1.481974160	-2.625568491	-1.752237379
H 	3.175838522	-2.285485016	0.205595095
H 	1.660910774	-2.757310025	1.014241806
H 	2.510058292	-1.287265870	1.532780850
C 	3.444241446	3.284435172	-0.778920173
C 	3.597757843	3.961215549	-1.990170181
C 	4.034125853	3.246888454	-3.102462299
C 	4.314826659	1.885017759	-3.045399296
C 	4.155865878	1.223400760	-1.825740273
C 	3.735532037	1.911173499	-0.676544728
H 	3.074994429	3.832684871	0.082193385
H 	3.361927582	5.017289930	-2.081739547
F 	4.186186956	3.901069161	-4.290515749
H 	4.639857724	1.362117198	-3.940382260
H 	4.364760563	0.156831565	-1.767967454
Zn	0.264778624	2.683489320	-1.463233112
Cl	0.459521120	2.569553970	-3.608190994
Cl	0.006226732	4.053996234	0.203744445
