13

C 	0.340103564	0.475886723	0.075996471
C 	1.398432927	-0.575893721	0.454545535
H 	1.463392332	-1.325756897	-0.345096638
C 	-1.012214853	-0.107874459	-0.264597500
H 	0.673133066	0.997296189	-0.835571102
H 	0.213786097	1.229685462	0.859921653
H 	1.098203007	-0.544855936	2.615428837
C 	1.142426343	-1.269711234	1.794944201
H 	1.943417588	-1.980837792	2.022276158
H 	0.198077315	-1.824568603	1.795599536
O 	-2.075383550	0.274625526	0.172922689
H 	-0.978980365	-0.953008166	-0.999462448
H 	2.376212499	-0.080759743	0.481748928
