13

C 	0.336730160	0.468997480	0.069943720
C 	1.402928220	-0.576738930	0.457952910
H 	1.494461080	-1.323608010	-0.342146130
C 	-1.030541060	-0.095611670	-0.259634210
H 	0.674281730	0.975688970	-0.848930230
H 	0.223202630	1.235350630	0.843809150
H 	1.067056660	-0.559237080	2.615792750
C 	1.147596210	-1.280600830	1.794833920
H 	1.968816760	-1.964878120	2.033727350
H 	0.222934970	-1.867593700	1.778919450
O 	-2.088920640	0.324044900	0.161209510
H 	-1.009929120	-0.957586300	-0.976221420
H 	2.371988370	-0.063999990	0.499399550
