13

C 	0.642702590	0.899295573	0.143612518
C 	2.642655235	-1.088281409	0.858966572
H 	2.765410720	-2.505317443	-0.652138132
C 	-1.912808851	-0.203853183	-0.500016809
H 	1.272037140	1.884616662	-1.579000541
H 	0.403997173	2.323768743	1.625016413
H 	2.075302913	-1.029628496	4.942444200
C 	2.158872906	-2.399406489	3.391952948
H 	3.672526987	-3.743240924	3.821548087
H 	0.374311876	-3.447934956	3.393191352
O 	-3.921906514	0.518967030	0.326776523
H 	-1.850004772	-1.800924428	-1.888710298
H 	4.490390838	-0.152613797	0.910373535
