32

H 	2.055513436	-0.608353204	-0.044490750
C 	0.000000000	0.000000000	0.000000000
C 	1.017747770	-0.929994427	0.000000000
C 	0.820707060	-2.345905304	0.000000000
O 	1.809097906	-3.136785920	-0.169950555
H 	-1.025410759	-0.345791382	0.114488384
H 	0.415034662	0.604380220	-2.667781889
H 	-1.424915410	0.556106797	-2.363592545
H 	-0.473034156	-1.028760447	-2.645622798
C 	-0.477312071	0.035014521	-2.439074490
C 	-0.547498076	-4.506585471	0.188342296
C 	-0.546524092	-2.973267456	0.194147217
H 	0.081120490	-4.903656208	0.991303090
H 	-0.160903715	-4.897924571	-0.757547431
H 	-1.568129382	-4.878233351	0.328965353
H 	-0.969381536	-2.586127649	1.132385425
H 	-1.201373481	-2.586177130	-0.602158150
C 	1.452895890	2.059965157	0.077582933
C 	1.583942123	3.438380960	0.215259013
C 	0.433178110	4.205359791	0.403769658
C 	-0.839858100	3.641117770	0.461142283
C 	-0.954606509	2.260452049	0.318389789
C 	0.181666573	1.443916832	0.128589346
H 	2.346839168	1.461196721	-0.071408558
H 	2.555670965	3.922699479	0.178326698
F 	0.559216717	5.556349651	0.537591219
H 	-1.708214727	4.276025555	0.612458527
H 	-1.940248259	1.800781867	0.356694264
Al	3.517255251	-2.786362220	-0.863949618
F 	3.143155854	-2.362265935	-2.452854111
F 	4.360545680	-4.214885677	-0.642458007
F 	4.087316692	-1.459465521	0.020992590
