32

H 	1.582848998	2.176602083	-0.751715265
C 	3.449990194	1.124691239	-0.684813381
C 	2.074629090	1.212398069	-0.647537335
C 	1.198585565	0.105661279	-0.421020068
O 	-0.050337096	0.296691145	-0.233959700
H 	3.913235133	0.140752012	-0.647207284
H 	3.693549219	2.290154624	1.812577964
H 	4.930613344	0.898372108	1.699037108
H 	3.143066802	0.540568890	2.116262925
C 	3.899681100	1.228434819	1.757552799
C 	0.599076161	-2.373628894	-0.157001867
C 	1.695660454	-1.326952315	-0.387370720
H 	-0.153703225	-2.336227514	-0.950410238
H 	0.084980545	-2.203905894	0.793897006
H 	1.039497820	-3.376316762	-0.141801332
H 	2.232325867	-1.523980190	-1.326597441
H 	2.459337543	-1.390938377	0.403497138
C 	3.908347559	3.549693022	-1.204098377
C 	4.798393304	4.560324395	-1.554242265
C 	6.142738295	4.234482168	-1.740290628
C 	6.624453145	2.935342342	-1.590396066
C 	5.721622980	1.935619755	-1.236509437
C 	4.351961274	2.217554951	-1.040525141
H 	2.862003355	3.801233039	-1.056625958
H 	4.468815908	5.587415806	-1.683266832
F 	7.016790792	5.223492318	-2.082136646
H 	7.678734350	2.726249551	-1.747936789
H 	6.078492910	0.915243265	-1.111093168
Al	-0.964562980	1.868128833	0.231881053
F 	-0.340350132	2.164866417	1.770299278
F 	-2.583428746	1.453513600	0.141082457
F 	-0.445652917	3.027032387	-0.889021489
