24

H 	0.863288630	-1.242070310	0.467908920
C 	-0.820707140	0.058090860	1.158434830
C 	0.475965370	-0.225062180	0.469665310
C 	1.195604660	0.687124210	-0.363299120
O 	2.167747960	0.463955220	-1.067075080
H 	-0.893189590	1.130024200	1.371486800
H 	-1.969749660	-0.554885810	2.904291900
H 	-0.218164860	-0.425570010	3.197505040
C 	-0.979235100	-0.735088080	2.471945830
H 	-0.869466950	-1.813229810	2.308585740
F 	0.693510410	1.993735530	-0.329018830
C 	-3.794775000	-0.833863970	-1.893464990
C 	-3.482910800	0.493620130	-1.574410820
C 	-2.529388110	0.772851520	-0.592080580
C 	-1.890540450	-0.270588210	0.098338880
C 	-2.196971590	-1.601762730	-0.239386800
C 	-3.148554540	-1.879933240	-1.223696070
H 	-3.979216200	1.311566680	-2.092856360
H 	-2.277701820	1.804050800	-0.354285850
H 	-1.694895700	-2.423857060	0.265263830
H 	-3.380623680	-2.913090930	-1.472959650
H 	-4.531606210	-1.051448630	-2.663678550
I 	2.471509660	-2.318072620	-1.899563960
I 	2.546664130	-4.978674030	-2.623355960
