67

C 	-2.127731026	1.794673156	2.162182330
C 	-0.688040934	0.049250300	0.307014904
C 	0.513350864	-2.204455591	1.568428687
O 	2.657144559	-2.948816360	1.217826008
H 	6.213210108	-9.932541506	-7.332686088
H 	-3.250717748	0.555168274	3.396398987
H 	0.760620866	1.060066662	-0.764238921
H 	13.329039061	-0.609053664	3.393753455
H 	10.148015606	-1.468152454	3.956385590
H 	4.431121435	-8.897892086	-4.700262347
H 	12.259852829	-3.702993672	2.642511421
C 	-0.206205387	3.161264272	3.867531449
H 	0.991384570	4.463953717	2.798029577
H 	7.750289136	-9.179519281	-4.474512940
H 	-1.123191730	4.224791504	5.377913926
H 	1.053160157	1.794874364	4.777290747
N 	9.008604176	-2.346348717	-1.070709702
C 	9.087905305	-3.317992653	-3.501451773
N 	6.785368658	-4.241755580	-4.340065143
C 	11.086685426	-0.844989198	-0.042690391
H 	7.294310944	-2.120953855	-0.261795780
C 	6.591868888	-5.868533598	-6.562677068
H 	5.421243057	-4.443276626	-3.021909934
H 	12.693069096	-1.288089495	-1.258511074
C 	6.204815816	-8.628644843	-5.732229017
C 	11.737474951	-1.702836067	2.653191681
H 	13.366259302	2.513563540	-3.200432534
H 	8.447947844	-5.741966119	-7.460119692
C 	10.605223462	1.999893613	-0.255842643
C 	8.800977600	3.241393271	1.237094446
C 	8.376188701	5.830322505	0.984028449
C 	9.754440982	7.239344737	-0.769324503
C 	11.555181427	6.030911704	-2.266585112
C 	11.970560429	3.438682269	-2.009287040
H 	7.707274599	2.191787837	2.624586555
H 	6.972011098	6.753816395	2.169062548
H 	9.427394322	9.259161473	-0.964010276
H 	12.640567020	7.104699193	-3.643535774
C 	4.636117042	-4.827836964	-8.549015484
C 	4.662376744	-6.520111596	-10.925105383
H 	3.519889387	-5.663820727	-12.422921263
H 	3.887101353	-8.401290386	-10.566680079
H 	6.581839567	-6.750614105	-11.665927117
C 	5.442518606	-2.140465399	-9.343998848
H 	7.342475182	-2.138555838	-10.161804072
H 	4.140066246	-1.388637977	-10.766011812
H 	5.453602190	-0.842698979	-7.738733656
C 	1.926210233	-4.725679986	-7.480823212
H 	1.230878794	-6.592877111	-6.927097156
H 	0.621897085	-3.986063333	-8.907672749
H 	1.802012292	-3.476121050	-5.837220496
H 	-2.013714477	-0.778049511	-1.060181813
C 	-5.453457030	5.212268706	2.857188670
C 	-4.124564150	3.568416509	0.841539352
C 	-6.184925202	1.950623102	-0.448339472
C 	-2.916696980	5.321241080	-1.150774023
H 	-2.053487373	4.262884101	-2.702034921
H 	-7.015035783	6.262699434	1.999513042
H 	-4.182141060	6.599867794	3.705892315
H 	-6.246729455	4.055439154	4.380338036
H 	-7.685553831	3.165354026	-1.190094829
H 	-7.058936578	0.630568641	0.886180981
H 	-5.464717789	0.856575189	-2.046716397
H 	-4.357691129	6.551943366	-1.981414338
H 	-1.467003007	6.546502584	-0.333470414
H 	-0.754743360	-3.259728311	2.888712539
O 	11.025071692	-3.363720257	-4.785960398
