12

C 	  0.535771	 -0.467282	  0.153716
C 	  0.527478	 -0.469131	 -1.205812
C 	 -1.823942	 -0.702733	 -2.016692
H 	  0.584221	 -1.395224	  0.721632
C 	  0.455930	  0.768880	  0.930245
H 	 -2.028910	 -1.671114	 -1.576455
H 	  0.569855	  0.465726	 -1.759213
H 	 -1.610376	 -0.652695	 -3.078638
H 	 -2.225903	  0.177063	 -1.529339
O 	  0.455517	  0.826601	  2.151795
H 	  0.398821	  1.702772	  0.318394
H 	  0.713283	 -1.377313	 -1.769539
