12

C 	1.572930132	-0.433174058	1.637775460
C 	1.480456629	-0.332840202	-0.930982495
C 	-2.893482388	-0.928910561	-2.509577950
H 	1.743799017	-2.236225702	2.615288700
C 	1.447036010	1.820073598	3.237451944
H 	-3.465746582	-2.413329285	-1.220450365
H 	1.487944688	1.468264816	-1.920405242
H 	-2.424428157	-1.450645841	-4.436410869
H 	-3.588505440	0.966993532	-2.166253925
O 	1.567480558	1.811039195	5.549684868
H 	1.248554183	3.637793428	2.177010964
H 	1.854160666	-1.999512220	-2.065980483
