12

C 	1.557998978	-0.450511887	1.651481434
C 	1.542326597	-0.454006015	-0.917654269
C 	-2.901213528	-0.895449906	-2.449996025
H 	1.649555714	-2.204068022	2.724686113
C 	1.407121627	1.885494716	3.118907574
H 	-3.288546864	-2.725425479	-1.618068337
H 	1.622407934	1.312617220	-1.963429899
H 	-2.497630947	-0.800891822	-4.456782728
H 	-3.660808277	0.767123906	-1.529031579
O 	1.406340506	1.994572253	5.427303457
H 	1.299200714	3.650294392	1.962678134
H 	1.893446863	-2.170222659	-1.982943268
