12

C 	1.572930127	-0.433174060	1.637775453
C 	1.480456630	-0.332840196	-0.930982502
C 	-2.893482384	-0.928910555	-2.509577948
H 	1.743799023	-2.236225697	2.615288704
C 	1.447036006	1.820073594	3.237451939
H 	-3.465746576	-2.413329283	-1.220450357
H 	1.487944680	1.468264811	-1.920405236
H 	-2.424428155	-1.450645849	-4.436410876
H 	-3.588505446	0.966993524	-2.166253921
O 	1.567480561	1.811039200	5.549684872
H 	1.248554180	3.637793435	2.177010963
H 	1.854160671	-1.999512225	-2.065980484
