12

C 	0.824457554	-0.238400624	0.873926339
C 	0.816164087	-0.240249636	-0.485601726
C 	-1.535256083	-0.473851684	-1.296482063
H 	0.872907292	-1.166342568	1.441841798
C 	0.744616698	0.997760835	1.650454811
H 	-1.740224058	-1.442233053	-0.856244890
H 	0.858541306	0.694607120	-1.039002358
H 	-1.321689378	-0.423813701	-2.358427854
H 	-1.937216314	0.405944489	-0.809128666
O 	0.744203346	1.055482182	2.872005306
H 	0.687507410	1.931652605	1.038604541
H 	1.001968930	-1.148432374	-1.049328388
