38

H 	1.605620635	1.850426639	1.387221978
C 	3.534748830	1.045709537	0.670476899
C 	2.067502567	0.984816277	0.918049743
C 	1.117453842	0.060365345	0.347131194
O 	-0.060505901	0.467057178	0.008471078
H 	3.863144709	0.176199122	0.090889581
H 	5.408332412	1.204080325	1.773896872
H 	4.184722485	0.218492050	2.603376250
C 	4.338895678	1.113778571	1.990483401
H 	4.031505681	1.984101293	2.582757484
N 	1.411088866	-1.248659772	0.134502678
C 	0.474924462	-2.081391027	-0.636097366
C 	2.493241430	-1.966332540	0.816581382
H 	-0.030235188	-1.471309428	-1.383204418
H 	-0.278052015	-2.532289351	0.024073229
H 	1.046952227	-2.876120504	-1.124822919
H 	3.266790158	-2.275270502	0.102638966
H 	2.077635441	-2.864335540	1.290376776
H 	2.936923031	-1.342799260	1.590858650
C 	3.829393564	2.317448771	-0.222842157
C 	5.256281551	2.339963995	-0.715666413
C 	5.632688414	1.539945545	-1.808217058
C 	6.954341963	1.522768594	-2.260496179
C 	7.924063053	2.309085025	-1.625963192
C 	7.560346168	3.114761260	-0.542099638
C 	6.236473754	3.126609460	-0.090130967
H 	3.144634628	2.299812210	-1.075184406
H 	3.602197300	3.213890789	0.365670333
H 	4.877652863	0.940493699	-2.314921831
H 	7.226987061	0.904530524	-3.113391443
H 	8.952646609	2.299683383	-1.979730148
H 	8.305582609	3.736324699	-0.049947677
H 	5.957207755	3.760039361	0.750095907
Sn	-0.546671220	2.083310282	-1.486212106
Cl	0.007955451	3.686479452	0.201545935
Cl	-2.656829756	0.999937969	-1.453569480
Cl	-1.080380369	3.704507103	-3.177259974
Cl	1.259534793	1.079481729	-2.735869464
