34

H 	1.454369556	2.262192057	0.888099841
C 	3.552592715	1.649747224	0.476390071
C 	2.065871362	1.472257891	0.464176190
C 	1.378255291	0.355695812	-0.107943378
O 	0.109862709	0.304746991	-0.142994468
H 	3.977284917	0.698753817	0.845248577
H 	5.080226399	2.875180120	1.446221680
H 	3.642245566	2.580001782	2.455918898
C 	3.989477811	2.778817879	1.435456816
H 	3.570001135	3.735251409	1.104926149
C 	1.264567141	-1.958896923	-1.203559532
C 	2.147337026	-0.815659602	-0.693381684
H 	0.588099032	-1.610911666	-1.990244086
H 	0.647817045	-2.373379079	-0.399675077
H 	1.891636515	-2.758993094	-1.611030349
H 	2.782358678	-0.419947988	-1.498988572
H 	2.849147571	-1.176211129	0.074682181
O 	6.002902879	0.394357479	-0.683392946
H 	5.645137626	0.330618763	0.218747945
C 	5.227021617	1.253315884	-1.439022293
C 	5.661924238	1.485145515	-2.750653657
C 	4.943572231	2.340875043	-3.585823863
C 	3.786445387	2.976914906	-3.118697494
C 	3.356386785	2.742215631	-1.813775020
C 	4.059988245	1.879107006	-0.953062302
H 	6.566765423	0.988961209	-3.092626531
H 	5.290965089	2.512219782	-4.602055867
H 	2.451764790	3.225245113	-1.451772986
H 	3.224538723	3.646442063	-3.764290821
Sn	-1.594265222	1.800141889	0.498714140
Cl	-0.649282750	1.516351421	2.673447891
Cl	-2.905113276	0.063891983	-0.418039844
Cl	-3.355781032	3.287874979	1.133334349
Cl	-0.483480551	3.296720481	-1.002672687
