27

H 	0.42215900	-1.73359500	0.48184000
C 	-1.01396600	-0.19573000	0.95016000
C 	0.25366400	-0.70607700	0.79594500
C 	1.43844400	0.09269500	1.04849700
O 	2.59390200	-0.31306100	0.94675100
H 	-1.08917600	0.87654600	1.13130800
H 	-1.47585500	-1.61926300	3.30575500
H 	-2.46873300	-0.05346100	3.30432300
H 	-0.66719200	-0.01294100	3.75224600
C 	-1.49879200	-0.53700700	3.29448900
C 	-4.65632500	-2.01488800	-0.39544700
C 	-4.49688600	-0.62907100	-0.42621400
C 	-3.31396200	-0.05106200	0.02985900
C 	-2.25841600	-0.84528100	0.51214800
C 	-2.43779600	-2.23935600	0.54449400
C 	-3.62104700	-2.81610500	0.09396600
H 	-5.29521500	0.00460000	-0.80521400
H 	-3.19803500	1.03017700	-0.00061700
H 	-1.65024800	-2.87864100	0.93267400
H 	-3.74074100	-3.89637600	0.13083400
H 	-5.58092800	-2.46803000	-0.74435100
H 	1.23843200	1.15219400	1.34289100
Ti	5.93084000	1.50507100	-2.01928100
Cl	4.50695600	0.70766800	-0.59404500
Cl	7.12941100	3.07611600	-1.05721200
Cl	4.84558100	2.35799300	-3.73162100
Cl	7.25325100	-0.10452900	-2.71625400
