26

H 	2.373935410	0.818193150	-0.089676500
C 	4.245347360	-0.171221600	0.282518400
C 	2.903810420	-0.113237530	0.092913610
C 	2.039591030	-1.278627390	0.094673800
O 	0.803703680	-1.231003730	-0.158190290
H 	4.705433380	-1.147624940	0.435877740
C 	6.546285230	0.710205660	0.402914510
C 	7.464747360	1.761397350	0.409736480
C 	7.023477300	3.085210740	0.312731830
C 	5.649424900	3.322812680	0.209211700
C 	4.712508930	2.301660390	0.192564050
C 	5.160402680	0.962693920	0.291164960
H 	6.894819150	-0.317729370	0.479613570
H 	8.529163190	1.553868800	0.491072430
H 	7.717386310	3.921582270	0.318591700
F 	5.216510370	4.618712130	0.123542070
H 	3.657952360	2.548777420	0.110740230
O 	2.604115380	-2.453049960	0.390427770
C 	1.727946410	-3.633779380	0.378557880
H 	1.276422300	-3.749912720	-0.609864000
H 	0.947489420	-3.519861430	1.135442070
H 	2.389880350	-4.467268300	0.614055610
Al	-0.405350390	0.077490630	-0.783574600
F 	-0.547235440	-0.323180240	-2.407285840
F 	0.402163670	1.539000050	-0.499811220
F 	-1.749310580	-0.185317980	0.182719430
