26

H 	2.378896473	0.817586049	-0.100287497
C 	4.248498293	-0.172951320	0.272624961
C 	2.908617506	-0.114399458	0.075758885
C 	2.046327854	-1.279825879	0.075917328
O 	0.805682085	-1.230689295	-0.145708169
H 	4.705082141	-1.147847083	0.440501369
C 	6.539472593	0.715337762	0.482886080
C 	7.456650540	1.766921998	0.500352879
C 	7.023019431	3.083441355	0.318710705
C 	5.658620777	3.311215984	0.121846316
C 	4.722844612	2.290807042	0.097765251
C 	5.162857255	0.959375413	0.281431609
H 	6.881682425	-0.306935784	0.625342222
H 	8.513557878	1.565711188	0.655511822
H 	7.713064213	3.922543741	0.327507697
F 	5.234268165	4.596857399	-0.055323101
H 	3.676492263	2.535000169	-0.059348323
O 	2.617521400	-2.458438956	0.334645302
C 	1.741328861	-3.636869905	0.319541787
H 	1.282275240	-3.743061481	-0.666312906
H 	0.966081501	-3.530262284	1.082239487
H 	2.403901376	-4.473075497	0.541404226
Al	-0.425183902	0.087765929	-0.697050677
F 	-0.627291279	-0.278596246	-2.321169748
F 	0.390242402	1.543370515	-0.417183935
F 	-1.733889921	-0.193190738	0.309063823
