30

H 	2.007761864	0.955671496	0.052324566
C 	0.000000000	0.000000000	0.000000000
C 	1.496380875	0.000000000	-0.000000000
C 	2.314306706	-1.172234280	0.000000000
O 	3.581575310	-1.104271410	0.070289409
H 	-0.354186726	-0.737365625	-0.736154570
H 	-1.664940524	1.356462841	-0.384645977
H 	-0.217217169	1.691373640	-1.365967277
C 	-0.570606218	1.385104466	-0.374819559
H 	-0.254916301	2.140312455	0.353644850
C 	1.699719069	-2.550974098	-0.081426413
H 	1.016790075	-2.625289320	-0.936720209
H 	1.109286090	-2.749803696	0.821867839
H 	2.490515804	-3.297661865	-0.173583750
C 	0.018963779	0.077195925	2.552728582
C 	-0.454023864	-0.345613083	3.798399884
C 	-1.455276188	-1.317884122	3.889062609
C 	-1.959172294	-1.850301804	2.704528098
C 	-1.503693412	-1.455360585	1.450468613
C 	-0.507087714	-0.473054381	1.370836094
H 	0.804138448	0.826304805	2.501418793
H 	-0.037669849	0.081369034	4.707426396
H 	-1.839353534	-1.661795451	4.845250368
F 	-2.940066282	-2.802905134	2.772844718
H 	-1.928958078	-1.907419888	0.557857025
Sn	5.095377471	0.708898589	0.295043756
Cl	3.832596109	1.165398010	2.277232616
Cl	4.149457268	1.393968642	-1.787465330
Cl	6.651873640	2.509644315	0.523814665
Cl	6.618153767	-1.093395766	0.334614599
