30

H 	1.827912431	2.133604429	1.118639335
C 	3.625360041	1.139001219	0.265937681
C 	2.154566376	1.340976494	0.453361543
C 	1.134775062	0.607495732	-0.228670362
O 	-0.098298253	0.875327843	-0.075943733
H 	3.837595952	0.059170721	0.267303846
H 	5.511544083	1.628898925	1.246896861
H 	4.150087699	1.397286528	2.371108523
C 	4.441197789	1.803916658	1.395934037
H 	4.270084617	2.886159833	1.407319038
C 	1.484963744	-0.523439317	-1.168683933
H 	2.142393498	-1.251432352	-0.677507282
H 	2.028833928	-0.131273448	-2.037301208
H 	0.570181623	-1.016978797	-1.501831836
C 	3.621345222	2.935124366	-1.549735079
C 	4.008590454	3.415004540	-2.804301900
C 	4.813705611	2.641656912	-3.646774421
C 	5.210757401	1.383886021	-3.198595725
C 	4.835588707	0.875869834	-1.958727678
C 	4.036890335	1.663324272	-1.118200371
H 	2.987526867	3.545447199	-0.912493836
H 	3.678125007	4.397481334	-3.132212758
H 	5.128042324	2.993244595	-4.625377493
F 	5.999480298	0.612230840	-4.008989305
H 	5.170197439	-0.114686647	-1.660737825
Sn	-1.252307807	2.537960434	1.162447063
Cl	0.073257542	4.045691871	-0.142046552
Cl	-0.196750170	1.485611637	3.027732613
Cl	-2.450568448	4.200146185	2.394928945
Cl	-3.080907984	1.472984111	0.118069131
