27

H 	  2.003218	  0.954362	  0.022426
C 	  0.000000	  0.000000	  0.000000
C 	  1.479710	 -0.000000	  0.000000
C 	  2.263095	 -1.178750	  0.000000
O 	  3.527412	 -1.218334	  0.082803
H 	 -0.352461	 -1.032380	 -0.140103
H 	 -1.609382	  0.856972	 -1.216008
H 	 -0.147887	  0.459900	 -2.133261
C 	 -0.516194	  0.862134	 -1.183534
H 	 -0.174065	  1.898539	 -1.100596
H 	  1.735533	 -2.143889	 -0.083236
C 	  0.013173	 -0.475861	  2.507523
C 	 -0.578490	  0.455003	  1.424339
C 	 -2.112312	  0.290715	  1.403917
C 	 -0.210115	  1.917333	  1.747295
H 	 -0.627985	  2.615467	  1.013810
H 	 -0.443421	 -0.257862	  3.479997
H 	  1.095014	 -0.336160	  2.609030
H 	 -0.183326	 -1.530853	  2.275305
H 	 -2.513398	  0.494319	  2.404406
H 	 -2.402043	 -0.731277	  1.128448
H 	 -2.595975	  0.986053	  0.710114
H 	 -0.621497	  2.187129	  2.727555
H 	  0.873796	  2.063443	  1.797151
Zn	  4.808388	  0.356050	  0.627289
Cl	  3.750932	  1.375218	  2.225386
Cl	  6.550147	  0.300993	 -0.611336
