27

H 	0.667448630	-1.757345950	0.265842660
C 	-0.648516380	-0.072416350	0.865866080
C 	0.580766970	-0.672084230	0.298093740
C 	1.648681750	0.088314060	-0.235910370
O 	2.678539510	-0.389826600	-0.802073600
H 	-0.508905710	1.016574830	0.937849680
H 	-1.767012080	-0.167477440	2.748312340
H 	-0.024315900	-0.421416920	2.933910230
C 	-0.887768150	-0.633939670	2.293997560
H 	-1.036864610	-1.718511020	2.276672810
H 	1.587211990	1.186716870	-0.151468020
C 	-1.539036670	0.349007540	-1.490366320
C 	-1.898575160	-0.273326930	-0.120956070
C 	-3.113190340	0.475043890	0.468515530
C 	-2.239587340	-1.766324660	-0.309817440
H 	-2.514474060	-2.246034190	0.636288310
H 	-2.408791150	0.315577370	-2.157474100
H 	-0.724310720	-0.198084950	-1.978279280
H 	-1.240620220	1.400473110	-1.382963980
H 	-3.942776490	0.444167650	-0.249062600
H 	-2.878735490	1.529382030	0.664221010
H 	-3.468692040	0.021102220	1.399605430
H 	-3.098657940	-1.859499220	-0.985888550
H 	-1.408397630	-2.320231830	-0.759207120
Zn	2.945440410	-2.373292590	-1.436903950
Cl	1.037705480	-2.899854260	-2.334808180
Cl	4.913549220	-3.019562280	-0.901166970
