27

H 	0.658197074	-1.757881097	0.260251531
C 	-0.654396743	-0.075726828	0.869881501
C 	0.576927666	-0.673194125	0.307373948
C 	1.654842364	0.088781065	-0.203153563
O 	2.686408121	-0.386564657	-0.766038462
H 	-0.515636068	1.012768365	0.944652330
H 	-1.791886099	-0.194293755	2.739439672
H 	-0.046396638	-0.409454699	2.944282858
C 	-0.897725945	-0.640831188	2.295339957
H 	-1.022494206	-1.728105507	2.277080957
H 	1.599672662	1.185740108	-0.101271183
C 	-1.526149228	0.322213642	-1.495701036
C 	-1.899328802	-0.276573101	-0.120181741
C 	-3.107714034	0.493289893	0.451773095
C 	-2.257151255	-1.767136221	-0.289285798
H 	-2.548685690	-2.227669396	0.660937160
H 	-2.393926104	0.294727291	-2.164965620
H 	-0.719093599	-0.243697365	-1.973830570
H 	-1.210688909	1.369596724	-1.400737359
H 	-3.935881637	0.456201295	-0.266603430
H 	-2.863571120	1.548683242	0.627369309
H 	-3.469676853	0.061372072	1.390504586
H 	-3.109301383	-1.860359139	-0.973451895
H 	-1.428964196	-2.339084057	-0.720189883
Zn	2.954318060	-2.350945046	-1.462802573
Cl	1.033831491	-2.876699772	-2.326599565
Cl	4.944586950	-2.988027262	-1.011245395
