21
GO, R2=Ph, R1=H, Rcat=ZnCl2
H	-0.62056146	-0.03764738	-0.08023722
C	-0.09659473	-2.02948020	-0.54883449
C	 0.18266548	-0.75219647	-0.26512258
C	 1.55928918	-0.22013974	-0.18291419
O	 1.86635738	 0.93365884	 0.07180470
H	 0.69695300	-2.74612423	-0.73626627
C	-4.19306316	-3.45045331	-0.75693434
C	-3.65805974	-2.69932305	-1.81090435
C	-2.33646548	-2.24089162	-1.74376760
C	-1.54987465	-2.53359044	-0.62266085
C	-2.08487807	-3.28472070	 0.43130916
C	-3.40647232	-3.74315213	 0.36417241
H	-4.25998008	-2.47534209	-2.66880521
H	-1.92706657	-1.66610667	-2.55029363
H	-1.48295774	-3.50870166	 1.28921002
H	-3.81587125	-4.31793708	 1.17069844
H	-5.20438242	-3.80125730	-0.80830917
H	 2.32514145	-0.94333367	-0.37095895
Sn	 1.85103070	 2.46611042	 0.80757453
Cl	 2.20976082	 2.91058035	 3.11963972
Cl	 1.78879142	 4.68377222	-0.05841484
