30

H 	1.538873773	2.119531491	-0.913484512
C 	3.431415426	1.156118507	-0.514545300
C 	2.060568208	1.226589639	-0.582225906
C 	1.190739284	0.158441932	-0.176928301
O 	-0.073273419	0.222832651	-0.199501880
H 	3.885951970	0.196039786	-0.282601139
H 	3.277548618	2.532040392	1.905250223
H 	4.903813052	1.625175166	1.825847464
H 	3.337254302	0.699353852	2.248166178
C 	3.822041925	1.595754423	1.879304641
O 	1.775737912	-0.969953248	0.255119283
C 	0.884939567	-2.057298360	0.672350273
H 	0.264109795	-2.373028928	-0.169885299
H 	0.249121095	-1.722632842	1.495964345
H 	1.555878857	-2.855857454	0.989093341
C 	5.712234132	1.867383693	-1.163506574
C 	6.617368787	2.810367415	-1.651478045
C 	6.183126217	4.094358373	-1.996482735
C 	4.829262467	4.395522100	-1.841898197
C 	3.903436577	3.479315830	-1.365990077
C 	4.345518379	2.185568644	-1.017603751
H 	6.057562394	0.871957585	-0.893463123
H 	7.666918798	2.550213995	-1.763933722
H 	6.865241866	4.850692719	-2.374274032
F 	4.399133714	5.649149784	-2.173967732
H 	2.864171691	3.778802611	-1.267710096
Al	-1.355350528	1.562745312	-0.479600245
F 	-2.385430415	0.874032848	-1.607836714
F 	-0.459713242	2.881734236	-1.050304542
F 	-1.976305982	1.786152077	1.063991294
