17
GO, radical, Rcat=TiCl4
H	 0.30883566	-1.71322737	 0.34845077
C	-0.85933175	 0.07325638	 0.95361639
C	 0.30566658	-0.62207952	 0.35697327
C	 1.44363467	 0.02246096	-0.23005168
O	 2.41991567	-0.55928782	-0.73004528
H	-0.69195270	 1.15283717	 0.94428296
H	-2.09949902	 0.10683830	 2.73788510
H	-0.38777363	-0.20492454	 3.06899219
C	-1.20706757	-0.41125312	 2.37345100
H	-1.40849480	-1.48746718	 2.39475159
H	-1.70568492	-0.10955427	 0.32499363
H	 2.13175883	-0.63340533	-0.72119785
Ti	 0.51060242	 2.59964317	 0.29295435
Cl	 1.54062743	 0.82456511	-0.28082009
Cl	 0.37873484	 2.68898148	 2.41797209
Cl	-1.45060675	 2.58372952	-0.54039797
Cl	 1.57365417	 4.30129658	-0.42493661
