8
GO
H	 0.09039378	-1.80988465	-0.51555853
C	-0.90781845	-0.00771283	-0.04943451
C	 0.18266548	-0.75219647	-0.26512258
C	 1.55928918	-0.22013974	-0.18291419
O	 2.58397592	-0.85270545	-0.38366642
H	-0.82431619	 1.04491294	 0.20242594
H	-1.88982657	-0.42714089	-0.11755322
H	 1.61846764	 0.81547669	 0.07956726
