35

H 	1.994033623	0.896477706	0.369315564
C 	0.000000000	0.000000000	0.000000000
C 	1.501734813	0.000000000	0.000000000
C 	2.368073335	-1.156689255	0.000000000
O 	3.409399676	-1.153560074	0.749793233
H 	-0.394491515	-0.812799021	-0.616871392
H 	-1.672887004	1.325053612	-0.438255126
H 	-0.296326678	1.506957023	-1.553960245
C 	-0.579905681	1.335548360	-0.508748703
H 	-0.208008974	2.177827434	0.084659118
N 	2.120838321	-2.265369254	-0.742901475
C 	2.941654141	-3.469207275	-0.528654233
C 	1.263203404	-2.270780005	-1.933567085
H 	3.219887322	-3.539740308	0.521861885
H 	3.851842091	-3.432428002	-1.142072587
H 	2.348184171	-4.342578226	-0.815362699
H 	0.351803060	-2.857360411	-1.762066633
H 	1.818235265	-2.726102112	-2.762499053
H 	0.999293308	-1.251676132	-2.216473384
C 	-1.050957404	-1.542745577	1.732721131
C 	-1.399900904	-1.868181300	3.046349102
C 	-1.111337096	-0.991122221	4.095429008
C 	-0.473413075	0.208072497	3.789697712
C 	-0.114521533	0.558430467	2.494147110
C 	-0.415595552	-0.326252316	1.445954317
H 	-1.271451586	-2.238529258	0.926214807
H 	-1.893716526	-2.813421343	3.258232588
H 	-1.359005424	-1.225838161	5.126482802
F 	-0.182889064	1.076503924	4.805020326
H 	0.408571331	1.494316348	2.326582763
Ti	3.910753592	-0.954983131	2.763189746
Cl	4.338401995	-0.822262660	4.971724674
Cl	3.516223696	1.271970656	2.556938837
Cl	2.229176185	-2.459369271	3.066211006
Cl	5.942018340	-1.690561088	2.168794847
