35

H 	1.784226530	1.848024031	1.369278358
C 	3.707562494	1.049239977	0.608384701
C 	2.232183280	0.985734568	0.881204579
C 	1.261103011	0.155897652	0.205300537
O 	0.122124799	0.658812419	-0.105127556
H 	4.106488080	0.060321552	0.364059416
H 	5.556444539	1.710201334	1.552392555
H 	4.395890539	0.966051320	2.680293378
C 	4.494663113	1.619957008	1.805698341
H 	4.124630720	2.612998126	2.082861482
N 	1.504214613	-1.133722992	-0.141072724
C 	0.539750919	-1.838293751	-1.002615701
C 	2.530843699	-1.966310991	0.496172492
H 	0.096209296	-1.135116060	-1.706025035
H 	-0.255541721	-2.297276080	-0.400185842
H 	1.076691560	-2.620436551	-1.547714368
H 	3.338831505	-2.205404615	-0.206770969
H 	2.066858639	-2.904327204	0.823815962
H 	2.939664154	-1.461860473	1.371759567
C 	4.311446373	1.294749383	-1.853717509
C 	4.416847386	2.040828047	-3.030809551
C 	4.061642290	3.392337841	-3.048725094
C 	3.606669827	3.965564311	-1.864285089
C 	3.491276936	3.249290560	-0.679531275
C 	3.857844583	1.893726416	-0.669974431
H 	4.580964485	0.240926419	-1.855205037
H 	4.771125736	1.567466845	-3.943302422
H 	4.120764691	3.991024778	-3.952927279
F 	3.253878164	5.286546524	-1.865465172
H 	3.100393692	3.747201627	0.201877369
Ti	-0.662005524	2.236732355	-1.218618636
Cl	-1.410808291	3.914396813	-2.523555719
Cl	-0.011491379	3.630689477	0.452079223
Cl	0.787076615	1.496385386	-2.810708281
Cl	-2.641741151	1.214519482	-0.981670558
