26

C 	0.042799836	0.449131831	0.364551209
C 	0.850650291	-0.807609712	0.368152956
H 	0.263277386	-1.628390573	-0.069317923
C 	-1.223604670	0.708979241	-0.302507642
H 	0.420964543	1.306087772	0.917908299
O 	-1.756161761	1.834950777	-0.264405862
C 	1.168835423	-1.202105893	1.833957427
H 	1.714654657	-2.149377214	1.884327338
H 	0.239111177	-1.317118514	2.401668795
H 	1.766884964	-0.430739035	2.330941781
N 	-1.808570110	-0.327063746	-1.024334211
H 	-2.758614130	-0.163675938	-1.337328135
H 	-1.529567803	-1.288135720	-0.875119886
C 	1.683523271	-0.362404633	-1.996460294
C 	2.139956144	-0.697956834	-0.558705560
C 	2.875928707	-2.055215199	-0.578791372
C 	3.102817013	0.402130454	-0.062785918
H 	3.459405402	0.204773991	0.954225879
H 	2.548861716	-0.321322493	-2.669046014
H 	1.173355870	0.605874393	-2.039813003
H 	0.992461313	-1.122528457	-2.381604824
H 	3.690665888	-2.026739529	-1.312850922
H 	2.197728756	-2.870140993	-0.864066064
H 	3.317144708	-2.301260303	0.392680188
H 	3.981938211	0.448056337	-0.717159559
H 	2.627189249	1.388991541	-0.075944591
