26

C 	0.618224459	1.360085716	0.000000000
C 	0.000000000	0.000000000	0.000000000
H 	-1.080069072	0.082568943	0.191577897
C 	-0.044188283	2.655260577	0.000000000
H 	1.703727912	1.432429512	-0.005893133
O 	0.607610638	3.715624941	-0.060549832
C 	0.608499730	-0.833987596	1.157430142
H 	0.142718020	-1.821895414	1.227174396
H 	0.454094115	-0.319351214	2.112008360
H 	1.687374347	-0.968172159	1.024435426
N 	-1.435329480	2.679644102	0.027108058
H 	-1.856473562	3.587174137	0.189192321
H 	-1.965030232	1.866258096	0.312742196
C 	-0.589927814	0.191087547	-2.469565044
C 	0.102763765	-0.708744857	-1.421450098
C 	-0.631856615	-2.066046157	-1.373748946
C 	1.572186855	-0.933393689	-1.838053111
H 	2.105524276	-1.572677967	-1.125813927
H 	-0.572095342	-0.291261765	-3.454395517
H 	-0.090526861	1.161930554	-2.557752634
H 	-1.638017034	0.376617850	-2.203522457
H 	-0.676176945	-2.501574175	-2.379632645
H 	-1.662900848	-1.946805666	-1.015740055
H 	-0.125510588	-2.788196337	-0.724842509
H 	1.608782953	-1.428031050	-2.816400052
H 	2.115242215	0.014180942	-1.924556998
