26

C 	0.050767640	0.446553890	0.366743110
C 	0.847608940	-0.818558260	0.355795190
H 	0.258234570	-1.629092450	-0.098844710
C 	-1.212175110	0.732165660	-0.298513400
H 	0.442330880	1.295386400	0.923740170
O 	-1.708633450	1.875918170	-0.283672580
C 	1.156647770	-1.235830380	1.817951960
H 	1.699270010	-2.185840160	1.856514650
H 	0.222927670	-1.356669530	2.379011270
H 	1.754927820	-0.473716510	2.329700100
N 	-1.832817620	-0.302116840	-0.993923010
H 	-2.779778190	-0.117754080	-1.306205480
H 	-1.586075740	-1.268426830	-0.818860740
C 	1.690442870	-0.389379770	-2.007250820
C 	2.144224490	-0.699901530	-0.562688140
C 	2.905055760	-2.044622530	-0.562240600
C 	3.083645480	0.422765310	-0.070253910
H 	3.428987810	0.245044160	0.954786410
H 	2.559658950	-0.332346750	-2.674568290
H 	1.155734270	0.565262050	-2.063381730
H 	1.022516800	-1.172011870	-2.389204500
H 	3.723798090	-2.008907220	-1.292345360
H 	2.244176540	-2.876059920	-0.841685850
H 	3.346543440	-2.270110480	0.414647470
H 	3.971157820	0.473836760	-0.713435120
H 	2.592458540	1.401604260	-0.103644000
