28

H 	1.321701520	2.143074370	1.078015100
C 	3.383703020	1.511404100	0.439877570
C 	1.883016920	1.486925420	0.421928280
C 	1.095445020	0.618003310	-0.418720730
O 	-0.184650110	0.551672700	-0.371673500
H 	3.733171790	0.486343830	0.657151040
H 	5.009260740	2.406550690	1.588775310
H 	3.521494320	2.136231140	2.531067720
C 	3.915200980	2.441726190	1.554839050
H 	3.611186660	3.477733660	1.366230710
N 	1.715675030	-0.212886090	-1.296139490
H 	2.683688280	-0.059026390	-1.557643220
H 	1.127610720	-0.761102720	-1.915705440
C 	5.054544910	2.604185040	-3.425249580
C 	4.023418550	3.366825590	-2.861701070
C 	3.481761860	3.011951280	-1.623465570
C 	3.966635470	1.889542210	-0.929548470
C 	4.998209100	1.128793680	-1.501687970
C 	5.542348940	1.484858550	-2.742576080
H 	3.638454850	4.237036800	-3.389408110
H 	2.675718050	3.604707380	-1.194729640
H 	5.386040900	0.261131090	-0.968460530
H 	6.346268580	0.890079350	-3.171710260
H 	5.474762990	2.881589550	-4.389735120
B 	-1.127662420	1.459466940	0.618185380
F 	-0.820687680	2.787469450	0.304938640
F 	-0.746400990	1.116460090	1.914850370
F 	-2.400762400	1.078856480	0.275614350
