35

H 	1.990362842	0.896894696	0.373156574
C 	0.000000000	0.000000000	0.000000000
C 	1.501481445	0.000000000	0.000000000
C 	2.374676960	-1.149539355	0.000000000
O 	3.420082530	-1.135394942	0.746959847
H 	-0.398219208	-0.809363866	-0.619343166
H 	-1.674120500	1.326157029	-0.426590412
H 	-0.299101663	1.519162536	-1.542747436
C 	-0.581173979	1.338464949	-0.498453733
H 	-0.209754793	2.175884459	0.102109695
N 	2.135338783	-2.262094788	-0.740121704
C 	2.964061096	-3.460512642	-0.529959738
C 	1.269067645	-2.278361190	-1.923836275
H 	3.274600784	-3.512545873	0.512231827
H 	3.853907925	-3.433922598	-1.173273148
H 	2.363537436	-4.339978636	-0.782477340
H 	0.363578252	-2.871341215	-1.743074742
H 	1.821274995	-2.732614450	-2.755454417
H 	0.994938502	-1.262493121	-2.208035905
C 	-1.054607559	-1.011390425	4.096439234
C 	-0.395368466	0.191492360	3.822290190
C 	-0.069722364	0.529277975	2.508061921
C 	-0.400555606	-0.332687438	1.448865026
C 	-1.048980558	-1.542936747	1.733897992
C 	-1.385021947	-1.876435826	3.048119228
H 	-0.116769494	0.859557171	4.633567912
H 	0.464829839	1.454477988	2.313768404
H 	-1.292618162	-2.226734236	0.922388654
H 	-1.891966734	-2.816327244	3.255024519
H 	-1.295969823	-1.279863687	5.122094273
Ti	3.897131305	-0.949625280	2.764648962
Cl	4.258680339	-0.803249150	4.988208155
Cl	3.531741456	1.284758822	2.550617935
Cl	2.247698001	-2.495564498	3.034288440
Cl	5.941693038	-1.679173078	2.219828395
