29

H 	1.289550420	-0.769899716	0.470991610
C 	-0.549723164	0.450494350	0.743128827
C 	0.773015585	0.132131390	0.155450142
C 	1.468832180	0.895966830	-0.830083118
O 	2.522342518	0.631516827	-1.394150883
H 	-0.818269211	1.479042912	0.477116929
H 	-1.413079170	0.600559086	2.751976579
H 	0.301362455	1.032349616	2.669072657
C 	-0.457507139	0.341010834	2.287532178
H 	-0.179822791	-0.670111412	2.603279657
F 	0.845399028	2.086513558	-1.170013656
C 	-1.705251782	-0.249948967	-1.426173099
C 	-1.700230151	-0.466993670	0.104265087
C 	-3.061925130	-0.020265429	0.676850036
C 	-1.468212768	-1.961478652	0.410299282
H 	-1.468254955	-2.163848226	1.486828217
H 	-2.539000344	-0.798433948	-1.880105167
H 	-0.779195455	-0.613149486	-1.886513824
H 	-1.819546190	0.811018232	-1.678017697
H 	-3.868492202	-0.559591800	0.164768572
H 	-3.225898647	1.053655072	0.523274393
H 	-3.152308383	-0.234400363	1.746752077
H 	-2.274659825	-2.556157490	-0.035786343
H 	-0.522751957	-2.320189941	-0.011243945
Sn	3.978728396	-1.658008275	-1.486684699
Cl	1.829950368	-2.435179175	-2.096741908
Cl	4.163531859	-1.101364436	0.799357424
Cl	5.254509583	-3.649387428	-1.596930248
Cl	5.059073051	-0.263589033	-3.025125300
