68

C 	0.000000000	0.000000000	0.000000000
C 	0.090403979	-1.369227613	0.000000000
C 	1.328535234	-2.122610807	-0.000000000
O 	1.394902556	-3.352271243	0.156084746
H 	0.363759860	-3.923154913	5.844016220
H 	0.914651035	0.571228003	0.137655936
H 	-0.801281932	-1.982756386	0.018638136
H 	-2.392091213	-6.401137382	-1.938156124
H 	-0.771828076	-5.727580126	-1.686084350
H 	1.396283707	-3.980976466	4.403359584
H 	-1.432382271	-6.887831164	-0.516339630
C 	0.347036583	0.562196849	-2.336060159
H 	-0.452930672	-0.060371078	-2.716080668
H 	0.072367824	-5.146341876	4.595238060
H 	1.093337062	-1.372598233	2.640322089
H 	0.173488694	1.627713575	-2.241681198
H 	1.366213537	0.198393360	-2.392557694
N 	-1.350447122	-4.451739196	0.650343221
C 	-1.683773984	-4.013255457	1.904717828
N 	-0.615587361	-3.519812574	2.604889583
C 	-2.315600540	-4.911688394	-0.357693102
H 	-0.394703624	-4.271722679	0.331190422
C 	-0.612374589	-3.171289155	4.031921208
H 	0.291844750	-3.591361717	2.150323532
H 	-3.168452146	-5.299092372	0.206918248
C 	0.367782752	-4.105351599	4.765155981
C 	-1.687350764	-6.051456789	-1.176014031
H 	-4.732256680	-3.685729796	-0.240378407
H 	-1.628106804	-3.386117301	4.379433258
C 	-2.821970955	-3.757161974	-1.225258370
C 	-2.017784447	-3.170331988	-2.215628451
C 	-2.500596784	-2.114698404	-2.995065290
C 	-3.795995780	-1.624862531	-2.792710882
C 	-4.601667148	-2.197121869	-1.803759501
C 	-4.116497034	-3.253601768	-1.024763094
H 	-1.007642650	-3.537911870	-2.383787274
H 	-1.869167125	-1.678975537	-3.766750620
H 	-4.170247802	-0.802074275	-3.397689243
H 	-5.608443376	-1.820167930	-1.635308114
C 	-0.368061386	-1.636650027	4.255259726
C 	-0.452641411	-1.322257209	5.766627984
H 	-0.429842754	-0.236987114	5.925268257
H 	0.383299806	-1.755929253	6.326720233
H 	-1.388115743	-1.703728683	6.195418953
C 	-1.479416380	-0.850351459	3.525698389
H 	-2.467115812	-1.108626937	3.922212432
H 	-1.326066477	0.229390097	3.644227610
H 	-1.486694691	-1.074663923	2.457524388
C 	1.010877967	-1.195161491	3.717425005
H 	1.832681956	-1.717632698	4.221240651
H 	1.152123300	-0.119640608	3.881678956
S 	-3.261670444	-4.069693253	2.522376758
O 	2.452198028	-1.356442113	-0.170095277
C 	3.714524399	-2.076134373	-0.103236828
H 	3.760303356	-2.841807782	-0.883607153
H 	3.829557275	-2.552350553	0.875506468
H 	4.483588369	-1.317474749	-0.257182780
C 	-3.612906804	2.201675388	0.672174268
C 	-3.681926874	0.851119026	0.306242472
C 	-2.517269254	0.124853086	0.070657813
C 	-1.254522449	0.737465580	0.195463599
C 	-1.198224370	2.099318870	0.553190255
C 	-2.365356251	2.824861171	0.794497722
H 	-4.645920265	0.357999692	0.208675815
H 	-2.596472400	-0.920067533	-0.207838705
H 	-0.227351303	2.582580398	0.650811085
H 	-2.303633133	3.872949791	1.079279605
H 	-4.524729949	2.764154697	0.860618283
