68

C 	0.967867650	-0.894015920	2.114567030
C 	1.887514660	-1.777699090	1.613921500
C 	3.275521290	-1.463144680	1.325414270
O 	4.136590500	-2.313425380	1.048817560
H 	4.881985470	-4.793544340	6.337880590
H 	1.317613190	0.087030070	2.427339010
H 	1.619513310	-2.810994220	1.430219350
H 	2.921831190	-6.343169480	-1.972331870
H 	3.717579800	-4.859042250	-1.414709300
H 	5.307799200	-3.716129270	4.994773650
H 	4.239913550	-6.429518810	-0.773490560
C 	0.244683530	0.339439290	0.116433320
H 	-0.108300020	-0.537463510	-0.412657640
H 	5.276266140	-5.473748370	4.748557790
H 	2.915877590	-1.854849170	4.191162730
H 	-0.480414460	0.975686920	0.611469950
H 	1.221030240	0.743140880	-0.125868660
N 	2.958572540	-5.076105850	1.188807340
C 	2.685279920	-5.358034550	2.501646880
N 	3.237311620	-4.452530360	3.371635480
C 	2.342720320	-5.758318270	0.039533990
H 	3.461036200	-4.205910350	0.989766150
C 	3.299247260	-4.591723380	4.834106630
H 	3.834282250	-3.738888050	2.959281270
H 	2.096871370	-6.764842910	0.390822280
C 	4.779056900	-4.641303740	5.258953860
C 	3.368996310	-5.851214450	-1.101331280
H 	-0.191887700	-6.579264900	0.552466150
H 	2.836647380	-5.561337010	5.047689850
C 	1.035732530	-5.077842510	-0.377996380
C 	1.027986220	-3.867980630	-1.092339210
C 	-0.178132110	-3.260680660	-1.456382240
C 	-1.398336920	-3.850573960	-1.105460740
C 	-1.401435600	-5.051182960	-0.387103010
C 	-0.193181510	-5.657815650	-0.024370560
H 	1.967668560	-3.394378550	-1.370111990
H 	-0.166232870	-2.330455040	-2.021360560
H 	-2.336316750	-3.376344910	-1.387297700
H 	-2.344808530	-5.516709000	-0.107120920
C 	2.433020330	-3.500667800	5.559433420
C 	2.469385890	-3.754679920	7.084500860
H 	1.760268660	-3.088855480	7.592504110
H 	3.461727930	-3.568471960	7.511325880
H 	2.183677490	-4.788769790	7.317014470
C 	0.971483230	-3.626416280	5.073184540
H 	0.562831740	-4.614868190	5.310249020
H 	0.343053670	-2.862567720	5.548361430
H 	0.901906510	-3.494232070	3.991422890
C 	2.948833530	-2.074409200	5.263576120
H 	3.975918060	-1.928022320	5.619917990
H 	2.314332550	-1.333880170	5.767403550
S 	1.758240820	-6.687720920	2.998570620
O 	3.575125440	-0.126887960	1.404251130
C 	4.976333730	0.214122790	1.196711730
H 	5.297155280	-0.083108640	0.193306720
H 	5.604229770	-0.287774800	1.939900380
H 	5.025732330	1.298044100	1.315632740
C 	-2.877915900	-2.017546850	3.629461880
C 	-2.210562050	-2.864383640	2.733514230
C 	-0.969956110	-2.502580660	2.213379610
C 	-0.368314090	-1.282461850	2.582198560
C 	-1.056832650	-0.430863090	3.469493180
C 	-2.296877190	-0.797438410	3.995681720
H 	-2.655512440	-3.813066020	2.442145080
H 	-0.470961340	-3.173610050	1.522195960
H 	-0.601667940	0.515915770	3.757345120
H 	-2.810445330	-0.133333770	4.688036300
H 	-3.844302750	-2.306261970	4.037883790
