31

H 	1.982071862	0.964951672	0.039594515
C 	0.000000000	0.000000000	0.000000000
C 	1.477188018	-0.000000000	0.000000000
C 	2.327670137	-1.144540445	0.000000000
O 	3.577932789	-1.023894982	0.263315634
H 	-0.379000334	-1.013707105	-0.178473298
H 	-1.604708278	0.916423059	-1.175893107
H 	-0.134133476	0.582611295	-2.104371057
C 	-0.511878049	0.926825181	-1.135675275
H 	-0.174594718	1.957662083	-0.991631065
C 	1.816747416	-2.532724844	-0.276167985
H 	1.328678564	-2.922069804	0.628499091
H 	2.656665418	-3.185666100	-0.523792831
H 	1.074728574	-2.544026162	-1.080830308
C 	-0.018931452	-0.629221725	2.475817338
C 	-0.550601178	0.403177761	1.455341129
C 	-2.090906161	0.338431988	1.427968187
C 	-0.086722500	1.814317422	1.872134765
H 	-0.409243148	2.579563854	1.157867446
H 	-0.445048083	-0.429730289	3.465828949
H 	1.071416821	-0.575551225	2.570513661
H 	-0.303222278	-1.651078396	2.192828571
H 	-2.478329545	0.484256114	2.443759259
H 	-2.445618519	-0.637131676	1.071285263
H 	-2.528320480	1.117748558	0.795725919
H 	-0.528366255	2.067235832	2.843475782
H 	1.001055215	1.869296260	1.982386015
Al	4.440530759	0.469443626	1.036003497
F 	3.490314132	0.691116997	2.416430268
F 	4.194795385	1.702904644	-0.088958553
F 	6.018274523	-0.023903290	1.277017495
