29

H 	1.134316916	-1.815871196	-0.053236035
C 	0.000000000	0.000000000	0.000000000
C 	0.153714625	-1.357937716	-0.000000000
C 	-0.937418415	-2.285445276	-0.000000000
O 	-0.905519834	-3.506621902	-0.083409585
H 	-1.002593176	0.403686098	0.127372621
H 	0.072316146	-0.666959240	-2.797865147
H 	-0.386384623	1.143826985	-2.745956381
H 	-1.642441736	-0.153995360	-2.281116313
C 	-0.615223467	0.114395018	-2.498103292
F 	-2.186376866	-1.712314128	0.093068874
C 	1.389406574	1.018981912	1.739856658
C 	1.139567979	0.981248256	0.196967218
C 	0.732287166	2.398731612	-0.265132234
C 	2.434477214	0.542370648	-0.520419911
H 	2.273634962	0.452074964	-1.600047955
H 	2.180838752	1.745637309	1.958849588
H 	1.700036959	0.036440422	2.108995475
H 	0.486180438	1.322281513	2.281992520
H 	1.492432115	3.125354888	0.043052678
H 	-0.224018716	2.700549727	0.179235144
H 	0.637108862	2.454321436	-1.353685970
H 	3.219752944	1.287961670	-0.352187870
H 	2.806554481	-0.417301374	-0.146935471
Ti	0.731242265	-5.043341131	-0.512818905
Cl	2.342282036	-6.517548727	-0.956169720
Cl	-0.972927967	-6.463117005	-0.418525418
Cl	1.011295840	-3.791527027	-2.365001193
Cl	1.588990516	-4.276492560	1.415181840
