67

C 	-2.849130837	-1.441749861	2.927018129
C 	-0.250857968	-1.099730880	1.625632533
C 	1.530707206	-3.308727859	1.932004117
O 	3.062685877	-4.022609678	0.370021036
H 	4.502335911	-10.220152774	-7.960975611
H 	-2.464395146	-2.150092288	4.843596828
H 	-0.417990222	-0.656722026	-0.386139531
H 	13.395728773	0.054129617	-0.299772527
H 	11.065437720	-1.973604075	0.994195912
H 	3.672490122	-9.169712754	-4.895842502
H 	12.791464769	-2.934619591	-1.700303134
C 	-4.346907090	-3.519031719	1.544552927
H 	-4.813990677	-2.979991008	-0.396673034
H 	6.847948353	-9.021198800	-5.920120454
H 	-6.103243759	-3.992078923	2.517281418
H 	-3.236871798	-5.262646015	1.435004596
N 	7.956540348	-1.916224507	-3.192616755
C 	7.514915340	-2.981803992	-5.510209321
N 	5.274149439	-4.275704666	-5.605706763
C 	9.965129245	-0.117137490	-2.560939912
H 	6.642698849	-2.205976762	-1.835203331
C 	4.527672036	-6.088585229	-7.557868456
H 	4.339577995	-4.443750641	-3.945699167
H 	10.906982956	0.268564853	-4.357744405
C 	4.886350558	-8.785482451	-6.527064902
C 	11.914593278	-1.311082952	-0.771770782
H 	8.947993474	4.106196025	-5.273858478
H 	5.884645665	-5.802899609	-9.088811160
C 	8.797810741	2.349916539	-1.605514112
C 	8.048919837	2.698349269	0.911761656
C 	6.910292856	4.944903288	1.692757571
C 	6.505094946	6.898236932	-0.028922806
C 	7.252517400	6.583296594	-2.536979451
C 	8.382748460	4.333578814	-3.311412593
H 	8.359392277	1.216698635	2.300224868
H 	6.354804328	5.175441674	3.659963374
H 	5.627450840	8.654517722	0.580556293
H 	6.960679096	8.097195045	-3.897056388
C 	1.834252647	-5.473791766	-8.667803952
C 	1.246992437	-7.326604132	-10.845086961
H 	-0.492434981	-6.757642461	-11.810700293
H 	0.968070392	-9.262564334	-10.179038248
H 	2.763568838	-7.345106252	-12.253293540
C 	1.846488529	-2.765080052	-9.750969002
H 	3.296387513	-2.543029844	-11.207437599
H 	0.011703244	-2.327606376	-10.603385944
H 	2.217322998	-1.359496923	-8.284106968
C 	-0.275279239	-5.676290075	-6.663465730
H 	-0.401793909	-7.569793781	-5.842058740
H 	-2.111945142	-5.258927619	-7.522379154
H 	-0.008300168	-4.323947277	-5.122566834
H 	0.780556988	0.480890701	2.496028689
C 	-2.807953648	2.895784339	5.064710091
C 	-4.345068783	1.106403976	3.341880194
C 	-6.867230079	0.549171249	4.709411968
C 	-4.928767823	2.484234682	0.837742444
H 	-6.078475667	1.331424947	-0.435509495
H 	-3.926656699	4.573348077	5.527540925
H 	-1.069103843	3.570307151	4.174515445
H 	-2.301303467	1.978646205	6.851187722
H 	-7.803244783	2.322538603	5.218036592
H 	-6.567419644	-0.516314128	6.459384890
H 	-8.187409493	-0.514141302	3.530629724
H 	-5.991619187	4.219121806	1.214756525
H 	-3.210356559	3.032950299	-0.171929494
H 	1.437943423	-4.274112969	3.807711195
S 	9.511698418	-2.703886053	-7.965785248
