31

H 	1.510475000	2.262281800	-0.914366480
C 	3.318997820	1.153916690	-0.748634330
C 	1.958639800	1.285092290	-0.741860690
C 	1.031507100	0.240040850	-0.408949030
O 	-0.183528950	0.518398790	-0.129765600
H 	3.759096120	0.169067140	-0.595954160
H 	2.537629970	1.950184110	1.925426740
H 	4.406024160	1.841738980	2.066692890
H 	3.385318530	0.286123770	2.001799570
C 	3.449286000	1.363147270	1.888516470
C 	1.410418220	-1.218158780	-0.391457940
H 	2.441877500	-1.375515050	-0.062555220
H 	1.326622850	-1.618116670	-1.412219440
H 	0.720690630	-1.769001450	0.252815820
C 	4.142638590	2.281279110	-2.778100550
C 	4.277812080	2.232578750	-1.221303560
C 	5.730365790	1.850860710	-0.856461600
C 	3.931915910	3.625598480	-0.642401960
H 	4.063405890	3.642107620	0.443577040
H 	4.860241370	3.006947490	-3.179902210
H 	3.132671350	2.585673110	-3.072259800
H 	4.355480810	1.303755690	-3.227870390
H 	6.429128910	2.597819730	-1.250329430
H 	6.002009100	0.877036730	-1.284200520
H 	5.867074050	1.798195140	0.229343840
H 	4.597024440	4.379057080	-1.080516450
H 	2.901451190	3.919713050	-0.865473420
Al	-0.868250580	2.204301170	0.359429420
F 	-0.611533200	3.183512380	-0.994183770
F 	0.181524980	2.607055050	1.627593030
F 	-2.462193480	1.914831090	0.777224750
