30

H 	2.165136584	-2.593904756	3.508427137
C 	-0.812372369	0.119243168	2.416895954
C 	1.751630821	-1.234069796	2.008903193
C 	3.951910318	0.573313581	1.792438992
O 	5.913266089	0.436655617	2.967208166
H 	-0.839166750	1.749159213	1.126767385
H 	1.738685568	-2.262593422	0.206866878
H 	-0.945545746	-0.304278665	6.548217246
C 	-0.899545830	1.191519641	5.120639454
H 	0.785299518	2.329191032	5.500472201
H 	-2.532485449	2.415353040	5.422234452
H 	3.673449927	2.120593313	0.374711563
C 	-3.102240437	-2.047950478	-1.236832355
C 	-3.179829035	-1.511204752	1.631981865
C 	-5.627134428	-0.007489004	2.161388042
C 	-3.310030335	-4.047122146	3.064881530
H 	-3.403401239	-3.778879413	5.112158801
H 	-4.824001275	-3.029659221	-1.829268038
H 	-1.513090279	-3.248763719	-1.786514469
H 	-2.980735986	-0.294234032	-2.330833382
H 	-7.260965603	-1.012356218	1.386890210
H 	-5.574867451	1.864804010	1.278648193
H 	-5.971773267	0.249432911	4.180735324
H 	-5.005914826	-5.094217419	2.508348532
H 	-1.684572357	-5.256682161	2.656003000
Ti	8.889540759	-5.333444233	-6.544689833
Cl	9.201624401	-6.136845613	-2.511529200
Cl	5.691354242	-2.792644609	-7.189215545
Cl	8.268574330	-8.857512531	-8.606845272
Cl	12.365683468	-3.553107763	-7.878487129
