33

H 	1.635976080	2.290387200	-0.440324390
C 	3.449523710	1.194836000	-0.549147590
C 	2.091090810	1.303366230	-0.454436990
C 	1.182412640	0.195316130	-0.251862640
O 	-0.038951560	0.393704070	-0.002530170
H 	3.895149250	0.201236560	-0.585922700
H 	4.136240930	2.001959360	2.159569620
H 	4.533133210	0.187444640	1.962766880
H 	2.768235450	0.757682810	2.242751010
C 	3.798858580	0.985164500	2.000072240
C 	0.578971150	-2.296512320	-0.118039000
C 	1.675925190	-1.243429990	-0.320883460
H 	-0.198186090	-2.207589790	-0.884191320
H 	0.096218300	-2.180211130	0.857535680
H 	1.011111720	-3.301865610	-0.175109530
H 	2.180824540	-1.385815680	-1.287286850
H 	2.463620870	-1.355005550	0.440594460
C 	5.813880610	2.079256330	-0.434284800
C 	4.381245910	2.320249710	-0.967822240
C 	3.877194930	3.713372050	-0.530771050
C 	4.423531840	2.257681630	-2.529372270
H 	3.428844640	2.433167290	-2.953319290
H 	6.502926360	2.810369760	-0.873116120
H 	6.171305160	1.076191450	-0.700699350
H 	5.861126280	2.180954120	0.654040600
H 	4.600283890	4.478103190	-0.837045380
H 	3.752692480	3.771253400	0.556007540
H 	2.916753230	3.964422680	-0.993964960
H 	5.107345840	3.028479140	-2.905653580
H 	4.782738270	1.282253820	-2.880160680
Zn	-0.940336080	2.148552970	0.642370060
Cl	-2.718447690	2.512558280	-0.502038800
Cl	0.353582990	2.880479740	2.227032270
