28

H 	1.942801095	0.910776021	-0.137285772
C 	0.000000000	0.000000000	0.000000000
C 	1.375674774	-0.000000000	0.000000000
C 	2.162521313	-1.217726801	0.000000000
O 	3.342253459	-1.292272660	-0.484320474
H 	-0.517236538	-0.948718758	0.137337070
H 	-1.442638522	-0.111541532	-2.373667761
H 	-0.063003971	-1.366467949	-2.415634007
H 	0.322044121	0.426658121	-2.683548874
C 	-0.381125327	-0.331048025	-2.359646895
N 	1.652063754	-2.366304458	0.516466778
H 	2.251728058	-3.184055227	0.523246952
H 	0.862389262	-2.344885055	1.146780608
C 	-2.245601921	0.936414755	0.474517480
C 	-3.147409992	1.984391743	0.639542664
C 	-2.716849617	3.306084678	0.467117790
C 	-1.385197937	3.566127519	0.132496214
C 	-0.503758050	2.502365705	-0.021369399
C 	-0.888506259	1.158697275	0.145524764
H 	-2.582389677	-0.090905715	0.601155981
H 	-4.182161086	1.774384807	0.897483164
H 	-3.413132213	4.132373227	0.586693118
H 	-1.018310787	4.577978140	-0.016123566
F 	0.784604259	2.795027929	-0.366018244
B 	4.003187275	-0.136701644	-1.455058907
F 	3.059022633	0.073059745	-2.460296814
F 	5.165269193	-0.723293912	-1.887184697
F 	4.187050459	0.979388474	-0.647494270
