15
GO, R2=Br, R1=F, Rcat=I2
H	-0.33160036	-1.48639589	-0.98599428
C	-1.02068904	-0.17045776	 0.61446613
C	 0.07829788	-0.92403467	-0.14108398
C	 1.16253478	-0.01309258	-0.65722302
O	 1.23337481	 1.16058964	-0.42700443
H	-0.55387641	 0.47613874	 1.36398737
H	-2.66743162	 1.17155679	 0.24501865
H	-2.34106730	 0.05417965	-1.09043401
C	-1.87899571	 0.67732945	-0.32290562
H	-1.27134611	 1.43965961	-0.80958214
H	 0.56567349	-1.65005644	 0.51826935
Br	-2.12549285	-1.43452331	 1.52531563
F	 2.12613073	-0.67946565	-1.44178008
I	 0.08391531	 2.65991660	 0.19818476
I	-1.51550849	 4.74616603	 1.06810880
