28

H 	1.824169940	2.345994120	-0.288508890
C 	3.625540300	1.343495910	0.471078210
C 	2.232124490	1.358793330	-0.077622880
C 	1.406850900	0.227847830	-0.370484840
O 	0.176490120	0.372578160	-0.658060150
H 	3.996082540	0.313889150	0.590330120
H 	4.722314030	2.064018870	2.185683530
H 	3.037725980	1.580955680	2.551875060
C 	3.689008480	2.072135960	1.821221140
H 	3.354742630	3.108181200	1.704584520
C 	1.014719090	-2.273938780	-0.796414680
C 	1.987970820	-1.179224420	-0.345239020
H 	0.677507840	-2.101155930	-1.824333860
H 	0.125862230	-2.300575100	-0.157673340
H 	1.506415730	-3.252116420	-0.752087320
H 	2.900563080	-1.188143410	-0.960287750
H 	2.334156760	-1.367685720	0.684251740
O 	4.501547650	2.053953240	-0.442189840
C 	4.847161250	1.303974720	-1.634350540
C 	5.837066600	2.131752590	-2.442069230
H 	3.942876220	1.094023360	-2.227422560
H 	5.291797920	0.339066020	-1.335503850
H 	5.388415300	3.085328160	-2.742522370
H 	6.129286190	1.584378130	-3.346897540
H 	6.738473850	2.339537400	-1.854225430
Zn	-1.018156880	1.993562820	-0.101898690
Cl	-2.458744960	2.432063550	-1.623199570
Cl	-0.209311350	2.522072390	1.847344770
