28

H 	1.855943027	2.334601682	-0.290457074
C 	3.647090038	1.317103237	0.467029549
C 	2.253574363	1.344772398	-0.075845713
C 	1.421164196	0.220991738	-0.367594164
O 	0.200931157	0.374891112	-0.687741040
H 	4.018348495	0.285310466	0.560027709
H 	4.755450282	2.000142033	2.187856555
H 	3.078610144	1.500178730	2.559023876
C 	3.719032976	2.012511603	1.833814687
H 	3.379177788	3.049114106	1.746355886
C 	0.989441884	-2.277894335	-0.742614358
C 	1.977511683	-1.193237563	-0.302427351
H 	0.669469857	-2.121550767	-1.778164759
H 	0.091749222	-2.270522952	-0.116678711
H 	1.459229884	-3.264441732	-0.668567848
H 	2.898519672	-1.233006426	-0.901833252
H 	2.302927050	-1.364404251	0.736404135
O 	4.517856591	2.048994933	-0.430483043
C 	4.826244258	1.347261508	-1.659206207
C 	5.825160792	2.187815541	-2.440981363
H 	3.909269234	1.187756043	-2.247620038
H 	5.249665587	0.358637892	-1.412639634
H 	5.397252868	3.166172811	-2.685639945
H 	6.089688327	1.679896303	-3.376339538
H 	6.739541172	2.343205787	-1.857711716
Zn	-1.005896922	2.002485252	-0.192240370
Cl	-2.450577733	2.372210150	-1.725390046
Cl	-0.213719143	2.595767510	1.745040514
