28

H 	1.659164150	2.006667230	1.391057060
C 	3.467996010	1.258099640	0.289734530
C 	2.004928860	1.540668560	0.469998400
C 	0.943296610	1.113133990	-0.411389430
O 	-0.291082220	1.210380420	-0.084192270
H 	3.589090430	0.159792770	0.333736770
H 	5.343081680	1.604461160	1.359352830
H 	3.912699480	1.497931990	2.417664470
C 	4.285275680	1.868706610	1.456361270
H 	4.200548630	2.961207310	1.450227150
N 	1.228045780	0.561214280	-1.614844360
H 	0.453782750	0.304107400	-2.218333220
H 	2.166970760	0.593681860	-1.997883520
C 	3.818473490	3.012992230	-1.532646570
C 	4.384612620	3.433415360	-2.739666000
C 	5.171555060	2.562189590	-3.504033700
C 	5.369198990	1.269250220	-3.027368820
C 	4.814486220	0.821504770	-1.828152540
C 	4.033088930	1.704706010	-1.064404100
H 	3.212037910	3.702129360	-0.948889630
H 	4.216134410	4.448859350	-3.091537620
H 	5.624833990	2.871494510	-4.442061270
F 	6.136470920	0.400098630	-3.759623340
H 	5.008639510	-0.195432330	-1.494068800
Al	-1.244284120	1.811595470	1.408376760
F 	-1.852432510	3.292971020	0.897057440
F 	-0.066203060	1.960649500	2.622182320
F 	-2.364622020	0.592175280	1.676519740
