23

H 	1.937213328	0.911977593	0.074075124
C 	0.000000000	0.000000000	0.000000000
C 	1.352960407	0.000000000	0.000000000
C 	2.155233676	-1.236274677	0.000000000
O 	3.279414026	-1.308927525	0.563784206
H 	-0.512246105	-0.964618591	0.004586564
C 	-2.302165923	0.880169157	0.187392500
C 	-3.236951094	1.909615523	0.251667605
C 	-2.810115079	3.241817550	0.181804152
C 	-1.449823364	3.534498247	0.044203897
C 	-0.535871444	2.490419430	-0.017385981
C 	-0.915184258	1.133064055	0.054647231
H 	-2.632465981	-0.155214524	0.245365281
H 	-4.293614658	1.678264276	0.357407893
H 	-3.531558562	4.053529950	0.232640648
H 	-1.086201953	4.556606718	-0.016128934
F 	0.781102273	2.811449508	-0.160993658
N 	1.663643318	-2.339475235	-0.621636401
H 	2.228600124	-3.181520450	-0.621186292
H 	0.870754473	-2.283157473	-1.246061948
Zn	4.279505078	0.100270169	1.737322222
Cl	4.393344341	1.928098464	0.588137216
Cl	4.762876241	-0.877543317	3.586558060
