23

H 	2.214714650	0.883645430	0.272949150
C 	4.137825690	-0.053647750	0.298076320
C 	2.785062500	-0.040016740	0.289288010
C 	1.961085770	-1.261383740	0.228038860
O 	0.802041940	-1.264220270	-0.268873040
H 	4.644720050	-1.020645490	0.258309670
C 	6.457629940	0.797062900	0.300252820
C 	7.410591870	1.812139640	0.308926040
C 	6.998577300	3.150964290	0.323160600
C 	5.634529400	3.464356720	0.331234800
C 	4.701137670	2.434899350	0.327313950
C 	5.066627420	1.070578050	0.309720520
H 	6.777035750	-0.243812430	0.284379330
H 	8.469317190	1.564246700	0.302151600
H 	7.734227670	3.952216000	0.326805250
H 	5.284910480	4.493322240	0.340392410
F 	3.378520640	2.777477220	0.337174950
N 	2.464356000	-2.428358460	0.708348100
H 	1.888449990	-3.260775160	0.647732180
H 	3.310178850	-2.457190980	1.261277320
Zn	-0.272654750	0.283947100	-1.170858530
Cl	-0.298936880	1.936895630	0.224740630
Cl	-0.851991290	-0.423581750	-3.114351650
