26

H 	2.429946310	0.560269930	-0.310359030
C 	4.304077500	-0.267935520	0.270315720
C 	2.985310950	-0.333698580	-0.032697440
C 	2.178479900	-1.555628650	-0.027527040
O 	0.967283380	-1.517298570	-0.321850290
H 	4.827607770	-1.186925000	0.538232250
C 	6.843110900	3.177413220	0.308360520
C 	7.355160960	1.909131710	0.604025900
C 	6.510647370	0.798023490	0.589805040
C 	5.139097520	0.929359590	0.276728590
C 	4.638276290	2.218868990	-0.017827000
C 	5.482354430	3.326006060	-0.001961780
H 	8.409022780	1.787535040	0.845518990
H 	6.909140630	-0.188985100	0.820367720
H 	3.587067000	2.353522060	-0.258890620
H 	5.082214870	4.311507620	-0.230990890
H 	7.497298640	4.046807770	0.319180200
C 	1.830448860	-4.077523890	0.330553950
C 	2.813110380	-2.899849830	0.338059570
H 	1.374387970	-4.203774710	-0.656702730
H 	1.020544680	-3.918228130	1.050077950
H 	2.353765390	-5.003698060	0.594439220
H 	3.639378670	-3.079599610	-0.366033730
H 	3.282450970	-2.792804200	1.327059290
I 	-0.376953560	0.727202630	-1.064541660
I 	-1.802450410	2.998480640	-1.844880780
