31

H 	1.906191566	0.941817669	-0.111140880
C 	0.000000000	0.000000000	0.000000000
C 	1.377684724	0.000000000	-0.000000000
C 	2.204263606	-1.174206089	-0.000000000
O 	3.448552885	-1.094351018	-0.226268739
H 	-0.525301211	-0.931600263	0.199703936
H 	0.408317881	0.194656579	-2.711852037
H 	-1.413869837	-0.102247100	-2.406654897
H 	-0.215935980	-1.528939436	-2.382638796
C 	-0.390966977	-0.458479927	-2.380542798
C 	2.654985924	-3.672456002	0.374859423
C 	1.613945959	-2.552587072	0.260963909
H 	3.352344724	-3.477911438	1.196106928
H 	3.243571580	-3.759668849	-0.543308344
H 	2.155667321	-4.629426055	0.561658764
H 	0.997159987	-2.498710609	1.168793609
H 	0.911270349	-2.766441224	-0.559816515
C 	-0.334296989	2.475604933	-0.329817374
C 	-1.143396957	3.606358224	-0.257490377
C 	-2.454598370	3.463408308	0.197561743
C 	-2.985276765	2.230403983	0.569749932
C 	-2.164944009	1.106372162	0.484789441
C 	-0.826933010	1.207551634	0.049913761
H 	0.678212194	2.575016190	-0.711398569
H 	-0.778276484	4.585682796	-0.553863954
F 	-3.249930860	4.570836956	0.270325360
H 	-4.013582195	2.163901708	0.913676674
H 	-2.562372465	0.133512377	0.767251524
Zn	4.485327847	0.444247437	-1.130955918
Cl	6.466958677	0.567250469	-0.317793199
Cl	3.152449134	1.358068752	-2.599474563
