23

H 	  1.924967	  0.925088	 -0.001057
C 	  0.000000	  0.000000	  0.000000
C 	  1.357400	  0.000000	  0.000000
C 	  2.194659	 -1.174941	 -0.000000
O 	  3.417263	 -1.187416	 -0.014631
H 	 -0.506714	 -0.964036	 -0.003035
C 	 -2.639004	  3.352731	  0.009841
C 	 -1.252665	  3.570493	  0.024788
C 	 -0.372854	  2.493189	  0.021413
C 	 -0.864227	  1.166306	  0.002268
C 	 -2.263528	  0.965098	 -0.012509
C 	 -3.142373	  2.047234	 -0.008218
H 	 -0.863198	  4.585604	  0.039722
H 	  0.697586	  2.678344	  0.034375
H 	 -2.651398	 -0.051489	 -0.026615
H 	 -4.215929	  1.875349	 -0.021801
H 	 -3.321389	  4.199596	  0.011944
Cl	  1.368714	 -2.788624	  0.025653
Ti	  5.158340	  0.380861	 -0.116039
Cl	  6.390197	 -1.462420	 -0.098825
Cl	  4.236990	  1.071405	  1.808531
Cl	  4.118211	  0.947041	 -2.018112
Cl	  6.797001	  1.880613	 -0.213444
