23

H 	1.924967363	0.925088415	-0.001056600
C 	0.000000000	0.000000000	0.000000000
C 	1.357399734	-0.000000000	0.000000000
C 	2.194658809	-1.174941333	0.000000000
O 	3.417262586	-1.187415580	-0.014631033
H 	-0.506714332	-0.964036269	-0.003034984
C 	-2.639003771	3.352730586	0.009841369
C 	-1.252665399	3.570493376	0.024788094
C 	-0.372854252	2.493189288	0.021413001
C 	-0.864226607	1.166306486	0.002267577
C 	-2.263528153	0.965098098	-0.012509132
C 	-3.142373227	2.047233824	-0.008217860
H 	-0.863198257	4.585603569	0.039721725
H 	0.697585783	2.678344320	0.034374655
H 	-2.651397876	-0.051488698	-0.026615372
H 	-4.215928709	1.875349068	-0.021800707
H 	-3.321388802	4.199596272	0.011944213
Cl	1.368714063	-2.788623638	0.025653367
Ti	5.158339945	0.380860616	-0.116038977
Cl	6.390196659	-1.462419766	-0.098824816
Cl	4.236990066	1.071405067	1.808530781
Cl	4.118211121	0.947041311	-2.018112472
Cl	6.797000640	1.880612523	-0.213443631
