31

H 	2.044583228	0.933348653	0.041040654
C 	0.000000000	0.000000000	0.000000000
C 	1.493261453	0.000000000	0.000000000
C 	2.292478122	-1.192662736	-0.000000000
O 	3.539723659	-1.221580244	0.141603926
H 	-0.337829187	-0.665037847	-0.808585827
H 	-1.668773646	1.374857930	-0.279082975
H 	-0.210764247	1.817054398	-1.196732642
C 	-0.575461495	1.412195279	-0.245645347
H 	-0.280523339	2.094274453	0.560052437
O 	1.601983555	-2.339247192	-0.165011078
C 	2.384632881	-3.573285076	-0.125348315
H 	2.897206115	-3.655757385	0.837073984
H 	3.121917226	-3.574582466	-0.933002794
H 	1.652978631	-4.370729254	-0.255084013
C 	0.016043979	-0.271526678	2.553476956
C 	-0.495621754	-0.812755152	3.735599333
C 	-1.574509460	-1.702487650	3.688499739
C 	-2.141410587	-2.051022567	2.457573672
C 	-1.608896334	-1.497351661	1.298212232
C 	-0.533729797	-0.603819688	1.303705323
H 	0.862830846	0.409317320	2.594970103
H 	-0.049789368	-0.542562122	4.689493671
H 	-1.977341454	-2.127577869	4.604632969
H 	-2.980702403	-2.737617490	2.385560422
F 	-2.173012273	-1.847139197	0.093589791
Ti	5.145384052	0.164646104	0.653633034
Cl	6.765675014	1.605165636	1.207569335
Cl	3.853302911	0.606237388	2.458406811
Cl	6.410104466	-1.675797881	0.635483365
Cl	4.629272491	1.141040287	-1.307489757
