31

H 	1.811778880	1.961535910	1.539841440
C 	3.643490990	1.126020850	0.542245050
C 	2.175580640	1.291777120	0.767793890
C 	1.161886050	0.628539780	-0.005891610
O 	-0.071081000	0.859053450	0.074834090
H 	3.871564080	0.050422630	0.618197200
H 	5.543447530	1.707582420	1.443842160
H 	4.215112510	1.538839970	2.615090530
C 	4.475089400	1.880946580	1.606453610
H 	4.288662860	2.959362840	1.542066480
O 	1.624372820	-0.296759890	-0.871702020
C 	0.622086640	-0.947087650	-1.716200290
H 	0.086830860	-0.193633540	-2.301293010
H 	-0.087392730	-1.500674380	-1.094428040
H 	1.193519310	-1.616697360	-2.359331070
C 	3.469494780	2.663725270	-1.507839170
C 	3.871465490	3.055600780	-2.787382140
C 	4.868642990	2.337379700	-3.458247040
C 	5.462388630	1.225607910	-2.848730330
C 	5.038701430	0.857751060	-1.575625930
C 	4.046768710	1.550404950	-0.873279590
H 	2.689057920	3.220586070	-0.992321440
H 	3.407540380	3.919183630	-3.258229400
H 	5.187079470	2.638511700	-4.453749180
H 	6.240325690	0.648707860	-3.342519390
F 	5.628408230	-0.239139270	-0.982307010
Ti	-1.373176170	2.293237870	1.085687650
Cl	-2.677146020	3.795168030	2.112761510
Cl	-0.065982090	3.829269740	0.051221560
Cl	-2.990701550	1.264929850	-0.062111290
Cl	-0.611493130	1.323011660	2.971555700
