31

H 	1.252641075	-1.829997927	0.052769338
C 	0.000000000	0.000000000	0.000000000
C 	0.224511000	-1.479595073	0.000000000
C 	-0.791458100	-2.482588396	-0.000000000
O 	-0.491897994	-3.717185221	-0.081991362
H 	-0.941433916	0.226871203	-0.515797662
H 	0.957353980	1.824032967	-0.709337932
H 	1.239888892	0.402543509	-1.750866524
C 	1.148110448	0.745666539	-0.714847239
H 	2.104433956	0.564221077	-0.212186775
C 	-3.217630676	-3.293012783	0.158169151
C 	-2.257378902	-2.100680140	0.106247331
H 	-3.001217982	-3.934447790	1.018633533
H 	-3.131012692	-3.909884155	-0.741806789
H 	-4.250642697	-2.938263374	0.239765961
H 	-2.376927661	-1.458598677	0.990621119
H 	-2.489796703	-1.452340482	-0.753535640
C 	-0.501659690	1.263033790	4.134655937
C 	0.684307066	0.639908132	3.730091993
C 	0.846116693	0.231627668	2.403956565
C 	-0.174366199	0.446825965	1.461100681
C 	-1.363104403	1.063961084	1.877391688
C 	-1.524190975	1.477344659	3.203577857
H 	1.483005192	0.468853637	4.448323525
H 	1.772376303	-0.251453023	2.101653215
H 	-2.160396421	1.234542033	1.156297881
H 	-2.446460308	1.967194962	3.508403480
H 	-0.628077096	1.579309795	5.167438219
Zn	1.261490494	-4.543603939	-0.806796848
Cl	1.722671492	-6.368140244	0.216855495
Cl	1.912291027	-3.160240117	-2.357516141
