31

H 	1.314209431	2.386191507	0.416319542
C 	3.368071579	1.548077371	0.415033147
C 	1.887610933	1.486624615	0.205112676
C 	1.158379071	0.371919785	-0.308543679
O 	-0.112899461	0.394917726	-0.371869415
H 	3.747679741	0.543089066	0.637994439
H 	4.820251690	2.508215891	1.725029390
H 	3.260247231	2.144578430	2.512045241
C 	3.734238211	2.486409975	1.585775086
H 	3.393428012	3.508677351	1.388385958
C 	0.964684299	-1.947746378	-1.380807531
C 	1.883623177	-0.868213075	-0.800638880
H 	0.395685966	-1.562630936	-2.233215455
H 	0.243685822	-2.296037804	-0.634587766
H 	1.559163736	-2.803794660	-1.717548610
H 	2.634854692	-0.551092840	-1.538042077
H 	2.463122825	-1.266541832	0.047360802
C 	5.188909151	2.768699190	-3.344877680
C 	4.261711844	3.603202838	-2.710540600
C 	3.674421254	3.211964569	-1.504915100
C 	4.011312920	1.982182199	-0.912621096
C 	4.934754045	1.148169898	-1.559871007
C 	5.526805005	1.541013419	-2.764343608
H 	3.993195499	4.558311317	-3.156300216
H 	2.955330518	3.869178211	-1.021500292
H 	5.202147978	0.193261554	-1.111095740
H 	6.251786346	0.889576227	-3.247545783
H 	5.644750132	3.072717587	-4.284256692
Zn	-1.407033007	1.601329290	0.701662877
Cl	-3.156035414	2.054585343	-0.449438460
Cl	-0.406624423	1.904486144	2.611962779
