12
C4H6FO optimized with ADF in AMS.
C        0.82734955391241      -0.21398082045054       0.86048370935139
C        0.82620717095431      -0.23577373299231      -0.49578152986221
C       -1.53320094662447      -0.45699664191745      -1.30753007934940
H        0.88460939481722      -1.13386500967627       1.43636271660724
C        0.72716770052902       0.98611953744921       1.68583639247466
H       -1.76673236982272      -1.38993646850075      -0.80914210662216
H        0.86673088775177       0.68039082665175      -1.07329532438728
H       -1.29774713658216      -0.47923813380045      -2.36553430247623
H       -1.90273845453989       0.46590481942927      -0.87791718545131
O        0.73843965130459       1.05523693114498       2.88225817974808
H        1.00606870989856      -1.16642848688378      -1.02356824144035
F        0.60899045840136       2.14527708954635       0.93599309140758
