69

C 	0.000000000	0.000000000	0.000000000
C 	-1.058445293	-0.861313013	0.000000000
C 	-0.964979940	-2.314243411	0.000000000
O 	-2.000201462	-3.014948256	-0.036732612
H 	-5.862301020	-2.932604498	4.081446283
H 	1.008120310	-0.406961994	-0.075040351
H 	-2.070247573	-0.470331019	-0.018835968
H 	-6.074925184	-0.977107355	-3.829574757
H 	-5.418713684	-2.452675633	-3.085713044
H 	-4.705595152	-3.722008270	2.990931952
H 	-6.641785842	-1.481871209	-2.215839229
C 	0.479405288	-0.071205338	2.497361302
H 	-0.232024798	0.700241459	2.760893755
H 	-6.266153488	-3.153287906	2.369775464
H 	-2.087124016	-2.115823856	2.749210524
H 	1.531840031	0.177809338	2.430267198
H 	0.195524877	-1.101180895	2.668705557
N 	-4.276373021	-1.169877789	-0.915004958
C 	-4.858276925	-0.850148023	0.283331937
N 	-4.373201222	-1.590514255	1.325363608
C 	-4.660027462	-0.598812254	-2.208709618
H 	-3.616788974	-1.946759744	-0.906854103
C 	-4.855286030	-1.549437887	2.709254770
H 	-3.674303163	-2.295926996	1.093079160
H 	-5.067747002	0.392086831	-1.984759012
C 	-5.453046399	-2.922849144	3.066514499
C 	-5.772878352	-1.435099273	-2.880357719
H 	-4.039921780	1.527472584	-3.767232778
H 	-5.658692780	-0.805505124	2.709512040
C 	-3.452826252	-0.443102827	-3.123569634
C 	-2.500568310	-1.463071776	-3.283116413
C 	-1.436805865	-1.314916256	-4.178152157
C 	-1.311967852	-0.146992239	-4.938265633
C 	-2.255282326	0.874600385	-4.789243982
C 	-3.312566786	0.726301785	-3.885583779
H 	-2.581544717	-2.385573110	-2.712740263
H 	-0.707618623	-2.115371049	-4.285352892
H 	-0.484913787	-0.032321483	-5.635290993
H 	-2.164930430	1.790204941	-5.370035638
C 	-3.746773874	-1.028422367	3.690825544
C 	-4.346304890	-0.883920689	5.108025490
H 	-3.617636375	-0.412189122	5.778966607
H 	-4.615991407	-1.852545975	5.542430872
H 	-5.244447223	-0.253662166	5.091139583
C 	-3.280456053	0.363821410	3.210450248
H 	-4.124834947	1.057034716	3.132332538
H 	-2.548857642	0.781149318	3.913992113
H 	-2.813711227	0.302011685	2.224439962
C 	-2.532971668	-1.983173052	3.741262788
H 	-2.807801009	-2.971384369	4.126947226
H 	-1.758237360	-1.573320778	4.400745998
S 	-6.027022202	0.367538819	0.444037591
C 	0.396398382	-2.993812301	0.019758662
H 	0.256573827	-4.071844509	0.125042614
H 	1.019073656	-2.618378795	0.840604635
H 	0.933828628	-2.790122580	-0.915644954
C 	-0.005602795	1.561598005	-1.879642851
C 	-0.106536990	1.482496781	-0.324356794
C 	1.072650350	2.275595910	0.283950803
C 	-1.445499528	2.105119506	0.123421834
H 	-1.578086224	2.030106581	1.207433889
H 	-0.038745346	2.611616395	-2.195419245
H 	-0.834115462	1.028639840	-2.350690103
H 	0.933988402	1.126372841	-2.241099291
H 	1.077573064	3.298044496	-0.111249123
H 	2.034420400	1.811869951	0.029898421
H 	0.998392616	2.336615974	1.373736616
H 	-1.465338740	3.167073207	-0.147145613
H 	-2.305021722	1.627865176	-0.357665453
