69

C 	-1.593285640	1.109430285	1.677391789
C 	-0.585688738	0.273225605	1.293104450
C 	-0.183306437	-0.940287773	1.989679126
O 	0.780447945	-1.619389955	1.572524623
H 	0.751674962	-4.134623942	-3.482647086
H 	-2.109929209	0.912228599	2.616405418
H 	-0.000528442	0.506269705	0.409790552
H 	5.397017349	1.676370221	-0.149994545
H 	4.936045880	0.109135349	0.551807197
H 	0.913448470	-4.100814236	-1.715436142
H 	4.904792099	0.337870043	-1.220691274
C 	-3.519893060	-0.221947507	0.683746921
H 	-3.447388293	0.213496618	-0.304101122
H 	2.210730080	-3.456901603	-2.738694419
H 	-1.253987867	-2.345910071	-0.405024066
H 	-4.283088824	0.133602177	1.365835966
H 	-3.103937814	-1.209606197	0.833105998
N 	2.328286816	0.160187106	-0.375270187
C 	1.850698511	-0.265850451	-1.586571966
N 	1.078385107	-1.389823592	-1.489170811
C 	3.248084192	1.285447695	-0.188884252
H 	2.117253917	-0.429056712	0.429043161
C 	0.501171444	-2.138211324	-2.609879501
H 	0.973061161	-1.787521452	-0.556022926
H 	3.066020460	1.958464329	-1.032786794
C 	1.123724562	-3.546344455	-2.638148785
C 	4.720483296	0.820071512	-0.255142377
H 	3.146670475	3.965574890	0.186943091
H 	0.816646301	-1.596243586	-3.507456803
C 	2.957432748	2.027341812	1.108676496
C 	2.731122803	1.352875357	2.319653718
C 	2.529088616	2.062873702	3.506967543
C 	2.560181259	3.461600438	3.506419431
C 	2.786615495	4.143942285	2.306903579
C 	2.978633612	3.429938468	1.119565272
H 	2.713841091	0.265802764	2.349138658
H 	2.352330341	1.522131123	4.434484595
H 	2.404017113	4.013784692	4.430387760
H 	2.806390310	5.231703646	2.292821826
C 	-1.067769933	-2.102761346	-2.579816028
C 	-1.618716349	-2.794014731	-3.847649086
H 	-2.708244294	-2.675500170	-3.897984118
H 	-1.402760953	-3.867752677	-3.858779571
H 	-1.190190636	-2.348619669	-4.754379224
C 	-1.525832033	-0.627399799	-2.586364771
H 	-1.114975580	-0.090953968	-3.448365715
H 	-2.621027519	-0.571637552	-2.628878216
H 	-1.189221722	-0.108652448	-1.685541734
C 	-1.631707895	-2.806017707	-1.324900473
H 	-1.374332482	-3.871000668	-1.304542485
H 	-2.725730777	-2.728707957	-1.309172301
S 	2.162192376	0.551768992	-3.038819566
C 	-0.917689087	-1.380136677	3.247761111
H 	-0.542941547	-2.358187006	3.557229837
H 	-2.000237465	-1.433153992	3.081204520
H 	-0.748001863	-0.657217819	4.056399021
C 	-0.873099512	3.418436551	2.025958817
C 	-1.785935680	2.518129394	1.136275397
C 	-3.249208346	2.987622634	1.303417098
C 	-1.351730259	2.664942819	-0.337120988
H 	-1.938603552	2.014175562	-0.993146918
H 	-0.983003768	4.466160651	1.720104201
H 	0.175494981	3.132107741	1.921898452
H 	-1.147724521	3.341834019	3.085022778
H 	-3.325062298	4.058160383	1.080250270
H 	-3.599593890	2.832506951	2.331889315
H 	-3.923812486	2.454452169	0.627022771
H 	-1.503954274	3.700184863	-0.663384318
H 	-0.293119547	2.427575990	-0.482018959
