26

H 	  1.966454	  0.912454	  0.016654
C 	  0.000000	  0.000000	  0.000000
C 	  1.377647	 -0.000000	 -0.000000
C 	  2.152539	 -1.187161	 -0.000000
O 	  3.390052	 -1.300861	  0.024020
H 	 -0.511413	 -0.953282	 -0.112817
H 	  0.045992	 -1.331922	  2.553315
H 	  0.023233	  0.523545	  2.771407
H 	 -1.557583	 -0.386340	  2.375745
C 	 -0.477865	 -0.387136	  2.466422
F 	  1.465263	 -2.364214	 -0.023966
C 	 -2.532239	  3.422135	 -0.338186
C 	 -3.058165	  2.130631	 -0.466255
C 	 -2.219419	  1.024983	 -0.344111
C 	 -0.837353	  1.188307	 -0.100765
C 	 -0.320729	  2.497818	  0.023568
C 	 -1.162718	  3.600124	 -0.093797
H 	 -4.119548	  1.989148	 -0.655626
H 	 -2.626201	  0.019757	 -0.438010
H 	  0.737576	  2.652103	  0.215576
H 	 -0.754724	  4.602921	  0.007178
H 	 -3.185513	  4.287212	 -0.425796
Al	  4.814538	 -0.062131	  0.254084
F 	  4.049432	  1.428672	  0.012921
F 	  5.255007	 -0.336174	  1.847009
F 	  5.900705	 -0.497662	 -0.938951
