26

H 	0.975386180	2.576183840	-0.584498450
C 	2.498240490	1.067621120	-0.906246240
C 	1.206163110	1.524249560	-0.726364910
C 	0.074374480	0.675505400	-0.645650080
O 	-1.113567090	0.998661780	-0.455321810
H 	2.641841020	0.013531510	-1.133366180
H 	2.095857630	0.148071870	1.763299070
H 	3.550053510	1.311448870	1.645439680
H 	3.726336310	-0.461124500	1.091741840
C 	3.089649440	0.364822470	1.389033850
F 	0.299287560	-0.665801880	-0.776465280
C 	5.959745330	3.509580150	-1.497865420
C 	6.027920590	2.121331000	-1.671234720
C 	4.890988140	1.339828660	-1.473129390
C 	3.661529560	1.930397460	-1.103969810
C 	3.607072980	3.333141990	-0.936215040
C 	4.745623820	4.110537740	-1.133629790
H 	6.966121720	1.652107060	-1.959278740
H 	4.943429550	0.260247150	-1.604653360
H 	2.676366420	3.815775670	-0.649550160
H 	4.691288230	5.188653530	-0.999501980
H 	6.846902570	4.121734040	-1.645859110
Al	-1.979994780	2.673886980	-0.180562660
F 	-2.782793310	2.911867990	-1.631323640
F 	-0.678101780	3.732946430	0.062603050
F 	-2.903916390	2.392071790	1.185497360
