26

H 	0.900388374	2.572254616	-0.604205308
C 	2.404512052	1.099458041	-1.051301979
C 	1.136864110	1.526870485	-0.773225909
C 	0.030032375	0.639265453	-0.651521331
O 	-1.149077816	0.920769802	-0.385557652
H 	2.558828411	0.034798693	-1.215788981
H 	2.277944828	0.235279102	2.057450334
H 	3.697830353	1.416825202	1.740357825
H 	3.901247361	-0.410053205	1.373474280
C 	3.277631767	0.420452323	1.683550463
F 	0.285535998	-0.681912159	-0.833438134
C 	5.904025320	3.477369311	-1.568625959
C 	5.950117158	2.090573768	-1.755961097
C 	4.796730779	1.329782675	-1.580766885
C 	3.574326405	1.940346043	-1.217651222
C 	3.543749222	3.342952658	-1.035829783
C 	4.698535934	4.098831824	-1.208797887
H 	6.883040148	1.607738952	-2.036496148
H 	4.827975456	0.251223757	-1.721454602
H 	2.618405716	3.838269523	-0.755557779
H 	4.664928411	5.175990502	-1.064928343
H 	6.803158897	4.074448242	-1.702269226
Al	-1.898686784	2.656789231	-0.101993714
F 	-1.587282257	3.391080599	-1.582097396
F 	-0.894244543	3.240822236	1.119057107
F 	-3.490712384	2.357050005	0.296507403
