26

H 	0.125938990	0.638165147	0.195508338
C 	-1.036376034	-0.824280005	-0.904522837
C 	0.120951049	-0.261680146	-0.412601340
C 	1.407044691	-0.814938921	-0.635482980
O 	2.505322371	-0.405942063	-0.221415861
H 	-0.945875372	-1.670063292	-1.582369952
H 	-0.514297707	-3.171662178	0.680653167
H 	-1.545655810	-1.940414151	1.635204793
H 	-2.351368895	-3.037102076	0.357895550
C 	-1.452036452	-2.646130709	0.818716293
F 	1.461550452	-1.944858308	-1.396198578
C 	-4.964126853	0.832806025	-0.650651261
C 	-4.703501960	-0.258379079	-1.488728723
C 	-3.418335922	-0.792358594	-1.552650196
C 	-2.366512482	-0.240817954	-0.787492100
C 	-2.644250012	0.861794063	0.051726330
C 	-3.930780924	1.389398722	0.117069133
H 	-5.502456868	-0.692351336	-2.085177847
H 	-3.213845404	-1.643769218	-2.199219088
H 	-1.854966666	1.302452259	0.654662478
H 	-4.133589573	2.235671522	0.768949218
H 	-5.967876519	1.247481895	-0.592940185
Al	3.018636821	0.957990041	1.000360571
F 	1.599958384	1.869017339	1.153404412
F 	3.392328329	0.069679103	2.370682356
F 	4.271167164	1.732155022	0.210034680
