27

H 	1.638292656	2.003445780	-0.775819230
C 	3.463741405	0.900122920	-0.569110351
C 	2.062423805	1.035241479	-0.507698071
C 	1.164373246	0.080219956	-0.001055324
O 	-0.066422030	0.397001488	0.242437211
H 	3.938737211	-0.064759053	-0.409827704
H 	3.011302557	2.143936182	1.760166895
H 	4.793601968	1.629037300	1.581329711
H 	3.501678288	0.389761804	2.045119400
C 	3.742233657	1.355291877	1.610744289
C 	0.758267576	-2.329961887	-0.643593305
C 	1.529516090	-1.359643012	0.281624279
H 	1.030125040	-2.166497202	-1.692962396
H 	-0.319685735	-2.176966343	-0.537920655
H 	0.993152663	-3.367474893	-0.383202673
H 	2.607054412	-1.523076935	0.176803683
H 	1.259539220	-1.563340704	1.326577895
C 	5.687280387	1.770922724	-1.219990592
H 	6.084095191	2.298246866	-2.092065528
H 	6.037773035	0.734131907	-1.252558847
H 	6.082147967	2.246316859	-0.309037286
N 	4.228041352	1.789484985	-1.264991159
H 	3.794112486	2.683325307	-1.480290213
Al	-0.690650862	2.116988686	0.575345818
F 	-2.298812252	1.941801480	1.010808494
F 	-0.409263978	2.989825623	-0.850169677
F 	0.360543037	2.639760445	1.799525107
