34

H 	1.444363552	2.025980189	-0.883406599
C 	3.321639420	1.071214665	-0.523080136
C 	1.947408965	1.119957838	-0.563329021
C 	1.052081347	0.155479990	0.051844755
O 	-0.031954613	0.539400649	0.634586605
H 	3.818094123	0.140962976	-0.261689191
H 	3.090519545	2.462155710	1.807718685
H 	4.838107907	1.810322440	1.644057515
H 	3.460949987	0.693158963	2.214696002
C 	3.775816744	1.625158937	1.756632849
N 	1.305780741	-1.176908011	0.071089350
C 	2.216579959	-1.849008921	-0.864239536
C 	0.451160595	-2.069596454	0.872183761
H 	2.512985371	-1.165497714	-1.659506837
H 	1.692371211	-2.703143537	-1.309301485
H 	3.110657603	-2.223085738	-0.348700637
H 	1.062183403	-2.906212344	1.226430024
H 	-0.377144224	-2.461202506	0.266517299
H 	0.037770146	-1.520962949	1.717800074
C 	3.754158794	3.393711184	-1.418729019
C 	4.605709399	4.324363059	-2.011063663
C 	5.908964737	3.937705202	-2.320542179
C 	6.389152622	2.659247558	-2.050556957
C 	5.525416172	1.742045041	-1.450843097
C 	4.195338649	2.084385426	-1.136532358
H 	2.745676705	3.698071969	-1.153068439
H 	4.277194759	5.337601140	-2.225120514
F 	6.747796812	4.848760160	-2.901905624
H 	7.413368809	2.399473634	-2.302906854
H 	5.886358904	0.739911244	-1.226621194
B 	-0.413920497	2.072889140	0.970081473
F 	-1.562786318	1.960010471	1.718001792
F 	-0.598596902	2.716773098	-0.255934073
F 	0.669918324	2.601315172	1.681343499
