35

H 	1.904471236	0.928023206	-0.182395676
C 	0.000000000	0.000000000	0.000000000
C 	1.375477866	-0.000000000	0.000000000
C 	2.241698725	-1.169179192	-0.000000000
O 	3.353518014	-1.161356776	-0.637946531
H 	-0.538694244	-0.891790988	0.303619262
H 	-0.208801322	0.029739541	-2.708937477
H 	-1.648400227	-0.908958059	-1.986737306
H 	0.015725286	-1.730706479	-2.169948754
C 	-0.580895936	-0.825099964	-2.159557705
N 	1.904831143	-2.331358080	0.623335234
C 	0.941435589	-2.424404201	1.728400092
C 	2.744362490	-3.523277052	0.414119235
H 	0.689294712	-1.430099980	2.096683731
H 	1.403013959	-2.992178165	2.544727668
H 	0.026165271	-2.946696109	1.419844929
H 	2.110721999	-4.411676347	0.502616545
H 	3.543114902	-3.574735390	1.166380071
H 	3.200871114	-3.483248071	-0.574455764
C 	-0.319132029	2.434423364	-0.585475048
C 	-1.108923026	3.582150353	-0.608642053
C 	-2.403795284	3.513745648	-0.096004668
C 	-2.934994467	2.338488314	0.428457354
C 	-2.133212053	1.196657652	0.436702603
C 	-0.812361259	1.225514522	-0.052558548
H 	0.680141371	2.475006748	-1.009683734
H 	-0.740993840	4.515353034	-1.025836591
F 	-3.184876121	4.635836941	-0.123464369
H 	-3.951754832	2.325948722	0.810902765
H 	-2.534840615	0.267806673	0.837686651
Sn	4.520793480	0.378052058	-1.824157853
Cl	5.910290042	-1.515200273	-2.162744149
Cl	4.570202291	1.592917405	0.235755217
Cl	5.869102712	1.939487090	-3.057699336
Cl	2.561603471	0.632942550	-3.176914712
