35

H 	1.565670660	2.010792810	-0.894920440
C 	3.414570600	0.999363610	-0.607109750
C 	2.040560170	1.084644800	-0.592213680
C 	1.119738590	0.144189260	0.032863350
O 	0.039743060	0.556106910	0.589280740
H 	3.897226770	0.045587610	-0.417712370
H 	3.538835050	2.296353870	1.776257690
H 	5.074176930	1.256466060	1.565286580
H 	3.473211150	0.472402360	2.112349240
C 	3.997834700	1.320294540	1.683674670
N 	1.374174810	-1.191793460	0.110698570
C 	2.293404180	-1.910351390	-0.783388130
C 	0.491426000	-2.044536600	0.929150200
H 	2.573004190	-1.279191490	-1.627393530
H 	1.779268640	-2.799344540	-1.167577740
H 	3.196940310	-2.238049360	-0.251399510
H 	1.086550860	-2.871410400	1.331560460
H 	-0.327236400	-2.453597510	0.321232800
H 	0.063035450	-1.457851990	1.741467310
C 	3.879280520	3.361171630	-1.387341680
C 	4.748309030	4.313545000	-1.919708460
C 	6.051616500	3.931136590	-2.237696060
C 	6.510302940	2.629810100	-2.040704840
C 	5.627773280	1.690195870	-1.504857360
C 	4.299141590	2.030754010	-1.176064200
H 	2.873108610	3.665975360	-1.112747580
H 	4.431702880	5.341055120	-2.078305970
F 	6.912239800	4.866340540	-2.750176880
H 	7.533391070	2.369584950	-2.298406890
H 	5.974711490	0.671369420	-1.338537030
Sn	-1.065536700	2.533450020	0.729713750
Cl	-2.539595550	1.173624570	1.999591710
Cl	-1.107169030	2.439669270	-1.661407370
Cl	-2.317305980	4.576410950	0.930649950
Cl	0.925864410	3.395676680	1.751366960
