30

H 	-0.395953748	-2.102683680	-0.036119712
C 	0.000000000	0.000000000	0.000000000
C 	-0.820848041	-1.102474423	-0.000000000
C 	-2.269611677	-1.064955588	-0.000000000
O 	-2.944530643	-2.118654084	-0.066765665
H 	-0.447580251	0.981945865	0.140129014
H 	0.580443823	-0.327876669	-2.663659437
H 	0.621061337	1.488753118	-2.262097172
H 	-1.008281377	0.638212498	-2.583790819
C 	0.052990207	0.572275483	-2.372636679
C 	-4.534232035	0.144459212	0.079664771
C 	-3.007253920	0.272735544	0.085306280
H 	-4.880895989	-0.455353884	0.927044267
H 	-4.884724687	-0.346028699	-0.834074850
H 	-4.995509461	1.136408880	0.142481030
H 	-2.664959596	0.789619013	0.993767164
H 	-2.668487117	0.897484613	-0.754645812
C 	4.262087919	-0.011805562	0.477725293
C 	3.599304530	-1.202977783	0.151926034
C 	2.214940172	-1.217965621	-0.010077361
C 	1.461703696	-0.036335296	0.149694982
C 	2.142871867	1.155479897	0.470100075
C 	3.528046646	1.168471602	0.637984430
H 	4.165718688	-2.122362237	0.022317465
H 	1.719314711	-2.149665391	-0.269200378
H 	1.573491168	2.075508617	0.592323661
H 	4.034603625	2.096851117	0.892113712
H 	5.342556965	-0.004981546	0.601763956
I 	-1.895184026	-4.546658879	-0.501246987
I 	-0.857241485	-7.098088552	-1.019864314
