30

H 	1.545369740	2.060569250	-0.701912700
C 	3.427898900	1.046522640	-0.688652720
C 	2.057249980	1.107366890	-0.595401820
C 	1.188123430	-0.010490540	-0.281693450
O 	-0.039804290	0.157695080	-0.091787750
H 	3.909884070	0.070754620	-0.673587650
H 	3.763020250	2.217931830	1.771835000
H 	5.132881570	0.982153410	1.518044960
H 	3.450632120	0.409725650	2.088370780
C 	4.078346060	1.186773280	1.666290530
C 	0.719160030	-2.502355700	0.146965970
C 	1.762853270	-1.425284900	-0.173146450
H 	-0.054785350	-2.541622520	-0.626772700
H 	0.220893520	-2.296593690	1.100031990
H 	1.200394290	-3.485210330	0.209253520
H 	2.282692440	-1.654003590	-1.115180890
H 	2.546968450	-1.407729690	0.599853750
C 	6.025786870	4.222354460	-1.945546420
C 	4.700035270	4.510563700	-1.591658220
C 	3.842132500	3.491053500	-1.180933080
C 	4.294123240	2.156232620	-1.114849710
C 	5.632185010	1.882426380	-1.467266290
C 	6.489127450	2.903161750	-1.882534830
H 	4.335942000	5.534946250	-1.634612810
H 	2.820645880	3.735329020	-0.901252860
H 	5.996151370	0.857077640	-1.415226740
H 	7.516318980	2.671009520	-2.155863170
H 	6.691473620	5.021450660	-2.264969470
I 	-1.167950350	2.571430660	0.224701440
I 	-2.363602710	5.067299330	0.655586300
