26

H 	2.486268720	0.455955710	0.991297870
C 	4.117401850	-0.180570190	-0.212514120
C 	2.887573570	-0.291512570	0.315398200
C 	1.937411550	-1.361075220	-0.029487710
O 	0.676998180	-1.231857600	0.071287370
H 	4.456957220	-0.914909150	-0.949408680
C 	5.408052600	1.631926990	-1.295550880
C 	5.118439170	0.920561300	0.056565070
C 	6.426983090	0.258844250	0.573217490
C 	4.609291120	1.946202010	1.089216760
H 	4.402819070	1.471321490	2.055685800
H 	6.170342080	2.407381420	-1.151721150
H 	4.501559980	2.105096250	-1.688991440
H 	5.781419460	0.923291060	-2.045716800
H 	7.196742080	1.026279260	0.720799470
H 	6.814288790	-0.474647420	-0.145549560
H 	6.259590860	-0.248796210	1.530543910
H 	5.369735010	2.719230340	1.248692190
H 	3.692894940	2.439207060	0.745621370
N 	2.401075540	-2.549479460	-0.473922300
H 	1.733412390	-3.272889560	-0.718495850
H 	3.385568040	-2.776169770	-0.440642080
B 	-0.111984660	0.197753490	0.442186300
F 	0.335945270	1.105431810	-0.508121400
F 	0.296263320	0.513660800	1.735027590
F 	-1.431443710	-0.156090020	0.330557880
