26

H 	2.490927612	0.441979798	1.012318717
C 	4.115114329	-0.185944027	-0.203780110
C 	2.891016738	-0.303398300	0.333915359
C 	1.941567381	-1.370812748	-0.014453620
O 	0.681694896	-1.227525450	0.052871019
H 	4.448082980	-0.915640339	-0.947747446
C 	5.367541656	1.650791711	-1.287407179
C 	5.111486792	0.919305630	0.059577033
C 	6.433712101	0.260199471	0.541198626
C 	4.616294802	1.928414486	1.113945835
H 	4.430852567	1.441390820	2.078333638
H 	6.128525398	2.428088318	-1.149066026
H 	4.450050164	2.124334386	-1.653371487
H 	5.727208438	0.955529138	-2.055922657
H 	7.202025340	1.029297895	0.684164089
H 	6.809970525	-0.461735262	-0.194327268
H 	6.288017998	-0.260947804	1.494522478
H 	5.374871588	2.703905596	1.268563134
H 	3.691055052	2.420279181	0.794187777
N 	2.403048618	-2.571534162	-0.422181395
H 	1.733658373	-3.290209900	-0.673996237
H 	3.384083480	-2.805366759	-0.363513265
B 	-0.086545619	0.218100092	0.391420297
F 	0.412233024	1.114555951	-0.542065867
F 	0.284149065	0.524650423	1.695215239
F 	-1.407037768	-0.103562075	0.233574617
