27

H 	-1.784668031	-1.334844692	0.137043895
C 	0.000000000	0.000000000	0.000000000
C 	-1.461126590	-0.307127480	0.000000000
C 	-2.506515394	0.661549250	0.000000000
O 	-3.708104701	0.491593038	0.155500626
H 	0.170755570	0.975253066	-0.466903451
H 	1.902503469	-0.842087140	-0.634397068
H 	0.574735186	-1.094835110	-1.792578425
C 	0.835208455	-1.069483132	-0.728581670
H 	0.661000814	-2.068981592	-0.315746542
F 	-2.067928161	1.960654329	-0.219190577
C 	0.842894312	0.439534075	4.246318584
C 	0.765656718	1.567672954	3.420409500
C 	0.498719158	1.421285487	2.057585156
C 	0.329633845	0.143531591	1.498701349
C 	0.393713108	-0.983467714	2.337794407
C 	0.655541483	-0.835995939	3.700713273
H 	0.909425708	2.561411304	3.838767700
H 	0.424475117	2.299113691	1.419571997
H 	0.237015760	-1.978194814	1.928845561
H 	0.705608452	-1.715232199	4.338889879
H 	1.041483227	0.554259877	5.309420937
Sn	-5.026574801	-1.557400674	1.347586922
Cl	-4.229335954	-2.631471249	-0.600258460
Cl	-6.689576564	0.066802708	1.061924594
Cl	-6.206305922	-3.318934652	2.407502719
Cl	-3.331527337	-1.103388665	2.926846634
