27

H 	 -1.784668	 -1.334845	  0.137044
C 	  0.000000	  0.000000	  0.000000
C 	 -1.461127	 -0.307127	 -0.000000
C 	 -2.506515	  0.661549	 -0.000000
O 	 -3.708105	  0.491593	  0.155501
H 	  0.170756	  0.975253	 -0.466903
H 	  1.902503	 -0.842087	 -0.634397
H 	  0.574735	 -1.094835	 -1.792578
C 	  0.835208	 -1.069483	 -0.728582
H 	  0.661001	 -2.068982	 -0.315747
F 	 -2.067928	  1.960654	 -0.219191
C 	  0.842894	  0.439534	  4.246319
C 	  0.765657	  1.567673	  3.420410
C 	  0.498719	  1.421285	  2.057585
C 	  0.329634	  0.143532	  1.498701
C 	  0.393713	 -0.983468	  2.337794
C 	  0.655541	 -0.835996	  3.700713
H 	  0.909426	  2.561411	  3.838768
H 	  0.424475	  2.299114	  1.419572
H 	  0.237016	 -1.978195	  1.928846
H 	  0.705608	 -1.715232	  4.338890
H 	  1.041483	  0.554260	  5.309421
Sn	 -5.026575	 -1.557401	  1.347587
Cl	 -4.229336	 -2.631471	 -0.600258
Cl	 -6.689577	  0.066803	  1.061925
Cl	 -6.206306	 -3.318935	  2.407503
Cl	 -3.331527	 -1.103389	  2.926847
