25

H 	  1.911396	  0.926690	  0.000009
C 	  0.000000	  0.000000	  0.000000
C 	  1.343530	 -0.000000	  0.000000
C 	  2.202816	 -1.179826	  0.000000
O 	  3.409772	 -1.179955	 -0.001701
H 	 -0.514432	 -0.962412	 -0.001130
C 	 -0.125758	  2.540480	 -0.007217
C 	 -0.899465	  1.207904	 -0.002096
C 	 -1.796998	  1.121930	  1.264713
C 	 -1.799025	  1.113578	 -1.267868
H 	 -2.363460	  0.174003	 -1.284207
H 	 -0.830603	  3.379342	 -0.004931
H 	  0.504747	  2.633784	 -0.898894
H 	  0.513326	  2.636276	  0.878071
H 	 -2.512356	  1.952884	  1.266548
H 	 -1.193447	  1.183086	  2.177193
H 	 -2.362176	  0.182895	  1.287753
H 	 -2.515031	  1.943951	 -1.273646
H 	 -1.196292	  1.169486	 -2.181067
I 	  1.196967	 -3.199228	  0.009722
Sn	  5.409137	  0.896178	 -0.164369
Cl	  6.611449	 -1.108842	 -0.113980
Cl	  4.243113	  1.426564	  1.812825
Cl	  7.062277	  2.575545	 -0.299679
Cl	  4.106951	  1.241660	 -2.096867
