29

H 	  1.950411	  0.921378	 -0.010925
C 	  0.000000	  0.000000	  0.000000
C 	  1.373503	  0.000000	  0.000000
C 	  2.147588	 -1.230812	 -0.000000
O 	  3.372563	 -1.287915	  0.012345
H 	 -0.480720	 -0.970919	  0.127929
H 	 -0.282387	  0.565507	 -2.775459
H 	 -1.371936	 -0.864528	 -2.318310
H 	  0.449412	 -1.111528	 -2.527368
C 	 -0.378719	 -0.432792	 -2.365571
H 	  1.541888	 -2.170374	  0.002782
C 	 -0.906934	  1.174048	  1.952946
C 	 -0.880591	  1.184690	  0.396672
C 	 -2.329200	  1.005626	 -0.102900
C 	 -0.333172	  2.540963	 -0.086137
H 	 -0.253535	  2.579090	 -1.175963
H 	 -1.555844	  1.976351	  2.319756
H 	  0.093461	  1.322905	  2.367341
H 	 -1.294772	  0.226360	  2.340153
H 	 -2.978758	  1.762705	  0.347213
H 	 -2.729052	  0.023873	  0.171727
H 	 -2.402718	  1.110759	 -1.187238
H 	 -1.005327	  3.346209	  0.226188
H 	  0.651884	  2.761617	  0.332767
Ti	 -9.496385	  3.243741	  1.821485
Cl	-10.116497	  1.155044	  1.981689
Cl	 -8.706638	  3.616622	 -0.181767
Cl	 -7.942885	  3.656704	  3.302376
Cl	-11.213285	  4.544590	  2.182158
