29

H 	1.950411178	0.921378375	-0.010925086
C 	0.000000000	0.000000000	0.000000000
C 	1.373503004	0.000000000	0.000000000
C 	2.147587892	-1.230812034	0.000000000
O 	3.372562580	-1.287915452	0.012345273
H 	-0.480719546	-0.970919271	0.127929077
H 	-0.282386646	0.565507212	-2.775458727
H 	-1.371936114	-0.864528424	-2.318309969
H 	0.449411752	-1.111528332	-2.527367688
C 	-0.378719375	-0.432792064	-2.365571058
H 	1.541887981	-2.170374191	0.002782432
C 	-0.906934329	1.174047755	1.952946279
C 	-0.880591187	1.184690361	0.396672160
C 	-2.329199901	1.005626493	-0.102900271
C 	-0.333172043	2.540963258	-0.086136786
H 	-0.253534585	2.579090094	-1.175963253
H 	-1.555843907	1.976351275	2.319756455
H 	0.093460837	1.322904798	2.367341260
H 	-1.294771563	0.226359658	2.340153151
H 	-2.978758254	1.762705108	0.347213185
H 	-2.729052054	0.023873477	0.171726805
H 	-2.402717713	1.110759053	-1.187238177
H 	-1.005326657	3.346208835	0.226188045
H 	0.651884075	2.761617376	0.332767092
Ti	-9.496385183	3.243741481	1.821484668
Cl	-10.116497099	1.155044058	1.981689250
Cl	-8.706638194	3.616622199	-0.181767032
Cl	-7.942885238	3.656703964	3.302376417
Cl	-11.213285330	4.544589652	2.182157522
