28

H 	  1.996377	  0.958458	  0.023428
C 	  0.000000	  0.000000	  0.000000
C 	  1.479882	  0.000000	  0.000000
C 	  2.370759	 -1.117164	  0.000000
O 	  3.589742	 -1.076225	  0.121689
H 	 -0.355537	 -1.028015	 -0.122100
H 	 -1.595011	  0.862416	 -1.230039
H 	 -0.153606	  0.391545	 -2.143925
C 	 -0.501502	  0.838757	 -1.206723
H 	 -0.131207	  1.868298	 -1.166044
Cl	  1.592501	 -2.760490	 -0.215109
C 	  0.036330	 -0.395214	  2.518546
C 	 -0.571965	  0.492890	  1.408697
C 	 -2.104042	  0.308635	  1.408450
C 	 -0.224021	  1.970091	  1.685609
H 	 -0.661812	  2.641251	  0.938779
H 	 -0.410703	 -0.145636	  3.488094
H 	  1.119392	 -0.247854	  2.602852
H 	 -0.147984	 -1.458226	  2.323015
H 	 -2.503420	  0.549428	  2.401482
H 	 -2.378488	 -0.728372	  1.178410
H 	 -2.601497	  0.965376	  0.687116
H 	 -0.621757	  2.263351	  2.664771
H 	  0.858808	  2.137127	  1.709907
B 	  4.720529	  0.724070	  0.884524
F 	  3.958569	  0.859581	  1.981656
F 	  4.462087	  1.515335	 -0.167933
F 	  5.888084	  0.092892	  0.966406
