28

H 	0.747017330	-1.535450090	0.392362640
C 	-0.687313720	0.076981250	0.882348990
C 	0.599832550	-0.456259170	0.381252350
C 	1.712033590	0.255041320	-0.166687640
O 	2.694013790	-0.240725990	-0.712363070
H 	-0.649301920	1.171358730	0.872848830
H 	-1.824108840	0.019956670	2.753742440
H 	-0.068395900	-0.039865640	2.977781290
C 	-0.894420620	-0.392262450	2.350659000
H 	-0.934809530	-1.484229980	2.425224600
Cl	1.645537890	2.077551270	-0.023924320
C 	-1.578001480	0.239755550	-1.499502030
C 	-1.887611480	-0.328419240	-0.094797560
C 	-3.190042750	0.312715280	0.428082550
C 	-2.065700130	-1.859772580	-0.188477850
H 	-2.279391790	-2.307941530	0.788539660
H 	-2.419119370	0.050863460	-2.177401030
H 	-0.687158930	-0.228388950	-1.934624810
H 	-1.409717800	1.322989830	-1.460719990
H 	-3.995331430	0.151686320	-0.299843630
H 	-3.074104070	1.395206670	0.566168700
H 	-3.514949520	-0.124325630	1.378387490
H 	-2.911944410	-2.089548190	-0.847619280
H 	-1.180817230	-2.349607150	-0.610274040
B 	2.686387210	-2.341609400	-1.548912560
F 	1.573206530	-2.144721470	-2.277864020
F 	2.566694860	-2.978949510	-0.370816950
F 	3.882174680	-2.233857140	-2.123946430
