23

H 	0.206585926	-1.780878044	0.684386777
C 	-0.838066383	-0.131378713	-0.152834373
C 	0.259305703	-0.767885453	0.288687784
C 	1.631252204	-0.201500604	0.295619014
H 	-0.734826022	0.884045986	-0.542177507
O 	2.569160795	-0.875646955	0.722262668
C 	1.863838543	1.214202752	-0.229134645
H 	2.926373038	1.451550389	-0.142062679
H 	1.277334820	1.943955403	0.343499933
H 	1.555250313	1.296217871	-1.279219849
C 	-3.142601342	0.311031862	0.649372574
C 	-2.258129331	-0.655229894	-0.186071767
C 	-2.384461986	-2.085520590	0.373848286
C 	-2.738859181	-0.629690101	-1.663313096
H 	-2.135654583	-1.304399822	-2.281556031
H 	-4.192721263	-0.002538231	0.601073260
H 	-3.075990602	1.337431597	0.268290440
H 	-2.831232242	0.314743217	1.700245140
H 	-3.429451678	-2.413263892	0.326728662
H 	-2.062202472	-2.134800644	1.420336939
H 	-1.781859796	-2.795700297	-0.204121181
H 	-3.786697193	-0.948775198	-1.724109131
H 	-2.665520876	0.380042001	-2.085506886
