70

C 	0.000000000	0.000000000	0.000000000
C 	-1.319720715	-0.351820169	0.000000000
C 	-1.817932952	-1.721675796	0.000000000
O 	-3.014915327	-2.027822410	-0.074413886
H 	-6.152315971	-0.962805050	4.735683311
H 	0.737018822	-0.787720043	-0.144725071
H 	-2.103282427	0.399278128	0.014741785
H 	-6.280818836	0.705989833	-3.532552729
H 	-5.202481449	-0.593380956	-2.984770746
H 	-5.465904262	-2.080249658	3.538369629
H 	-6.814835147	-0.433905125	-2.271065143
C 	0.569086214	-0.481038405	2.369080778
H 	0.114410690	0.397643435	2.807542112
H 	-6.763831911	-0.966072507	3.072537837
H 	-2.472320103	-1.497989554	2.938561725
H 	1.647522831	-0.520778543	2.271904403
H 	0.021425895	-1.413561901	2.398114655
N 	-4.980362346	0.257493439	-0.413340443
C 	-5.149708210	0.695145328	0.888167457
N 	-4.543231170	-0.122633090	1.829551459
C 	-5.420242356	1.060440990	-1.561282131
H 	-4.346434165	-0.524830941	-0.575436671
C 	-4.839800533	0.005519757	3.259533050
H 	-4.195014179	-1.016608634	1.494577842
H 	-6.243664552	1.674240366	-1.181748230
C 	-5.861687275	-1.067694519	3.685232835
C 	-5.959710552	0.130020438	-2.657591143
H 	-4.785507776	3.447133408	-0.484793670
H 	-5.312430003	0.988328223	3.360975391
C 	-4.323986781	2.024054722	-2.031808235
C 	-3.481209567	1.743930182	-3.117568043
C 	-2.493907291	2.654813614	-3.511708353
C 	-2.330963654	3.859195375	-2.821082914
C 	-3.159041938	4.143512621	-1.729184768
C 	-4.145606276	3.234317803	-1.338056643
H 	-3.597235795	0.817038309	-3.673758098
H 	-1.855237888	2.423619331	-4.362002506
H 	-1.565202024	4.568050404	-3.129027909
H 	-3.038410074	5.076729357	-1.182351083
C 	-3.520151899	0.039233637	4.105517251
C 	-3.862186136	0.293128250	5.591219552
H 	-2.942402580	0.437259389	6.171722458
H 	-4.406040598	-0.546612620	6.037141766
H 	-4.475734093	1.196172029	5.704088526
C 	-2.642728398	1.205270420	3.596584877
H 	-3.182625316	2.157586430	3.664541330
H 	-1.729640357	1.286905146	4.199456844
H 	-2.360017184	1.056343019	2.551258802
C 	-2.735475887	-1.286180667	3.981228882
H 	-3.309972659	-2.134738436	4.369764983
H 	-1.799574437	-1.229089167	4.550111438
O 	-5.776800356	1.723234618	1.183490804
O 	-0.837223918	-2.673102884	0.103444500
C 	-1.303262329	-4.051082029	0.111711006
H 	-1.837634557	-4.279732957	-0.815401106
H 	-1.969814253	-4.222840599	0.962659208
H 	-0.399600635	-4.656558798	0.198903652
C 	1.914544036	1.628895642	0.324341752
C 	0.497777524	1.416170891	-0.257123469
C 	-0.458632908	2.491706069	0.299154241
C 	0.583631946	1.550296270	-1.808596778
H 	-0.401655869	1.420941923	-2.263352772
H 	2.327040049	2.577009700	-0.040211167
H 	2.594616768	0.824393708	0.017140125
H 	1.898957335	1.667693721	1.417501770
H 	-0.048978230	3.489075133	0.102061758
H 	-0.585630635	2.383093917	1.381856580
H 	-1.445172836	2.450455226	-0.170178899
H 	0.958613374	2.546794430	-2.072418436
H 	1.267180894	0.803542092	-2.231062572
