70

C 	-1.545960600	0.931568328	2.121153206
C 	-0.475096215	0.213334807	1.670786380
C 	-0.107512037	-1.117735245	2.137534981
O 	0.906747779	-1.727743457	1.775323731
H 	0.754926255	-3.766478209	-3.695973251
H 	-2.090324322	0.548374360	2.982242910
H 	0.180737068	0.603428390	0.898747112
H 	5.643626698	0.992668365	1.265503187
H 	4.407945285	-0.003371780	2.060636221
H 	0.844902947	-4.019170562	-1.940566087
H 	5.325108274	-0.666813769	0.699331899
C 	-3.382901397	-0.266432981	0.955716734
H 	-3.235351830	0.164149802	-0.026061011
H 	2.208091344	-3.284558825	-2.803739972
H 	-1.247171088	-2.330400404	-0.381199532
H 	-4.212045694	0.079706687	1.561319843
H 	-2.978457668	-1.250234994	1.153033056
N 	2.778928400	-0.252202992	-0.100373948
C 	2.185486806	-0.461144973	-1.332571309
N 	1.125344314	-1.353983005	-1.291123460
C 	3.820395277	0.764727196	0.092470672
H 	2.329136460	-0.656251249	0.720968720
C 	0.553407409	-1.920652367	-2.516275655
H 	1.005315453	-1.873469013	-0.426032696
H 	4.295956936	0.875913689	-0.887477512
C 	1.115122124	-3.336436766	-2.755634835
C 	4.862497584	0.243967123	1.093187174
H 	2.754768081	2.571423746	-1.598180784
H 	0.911713154	-1.269163343	-3.320489986
C 	3.220162477	2.128359348	0.455720537
C 	3.142982279	2.597021317	1.775575349
C 	2.586721190	3.849931565	2.059495246
C 	2.093514979	4.651860825	1.026196330
C 	2.155261648	4.188931602	-0.293150244
C 	2.712692797	2.938928921	-0.575443414
H 	3.529005427	1.992878331	2.592848491
H 	2.543410653	4.200090300	3.088991533
H 	1.663429181	5.626572066	1.246787917
H 	1.771009412	4.803761765	-1.104819322
C 	-1.011193797	-1.819798875	-2.504026093
C 	-1.574053605	-2.315797723	-3.855297791
H 	-2.655756435	-2.138416880	-3.902353317
H 	-1.408663831	-3.388809243	-4.000492574
H 	-1.109195531	-1.781814166	-4.694009362
C 	-1.404137597	-0.336182190	-2.322359797
H 	-0.972449141	0.281583925	-3.119242881
H 	-2.495014996	-0.223581339	-2.356362110
H 	-1.041694424	0.051537417	-1.366786641
C 	-1.622249811	-2.656981962	-1.357892529
H 	-1.399159009	-3.723836567	-1.472386519
H 	-2.713086430	-2.544352652	-1.344165405
O 	2.560686914	0.101341000	-2.371928050
O 	-0.998482658	-1.665382988	3.022948886
C 	-0.662233526	-2.996621734	3.503393038
H 	0.299630109	-2.983436934	4.024944857
H 	-0.608400878	-3.701113268	2.667510845
H 	-1.470513125	-3.265558989	4.185423812
C 	-3.252017359	2.799695380	1.968022201
C 	-1.764600728	2.406980331	1.813271979
C 	-1.267578735	2.799759784	0.406276895
C 	-0.942680557	3.181346111	2.889020508
H 	0.121134905	2.944689002	2.807671153
H 	-3.353154171	3.890915741	1.936692915
H 	-3.657195658	2.450358064	2.926087495
H 	-3.863978347	2.382479889	1.162924664
H 	-1.460805464	3.864034408	0.229103512
H 	-1.786640104	2.225316515	-0.368809940
H 	-0.191778813	2.644137800	0.289347079
H 	-1.069318624	4.261120890	2.743175558
H 	-1.283000868	2.929564321	3.901021658
