26

H 	0.30844700	-1.71404000	0.34828800
C 	-0.85983600	0.07283300	0.95338600
C 	0.30540200	-0.62288500	0.35687700
C 	1.44324200	0.01821000	-0.22963900
O 	2.45638300	-0.55219400	-0.73119000
H 	-0.69232700	1.15245100	0.94389700
H 	-2.09985200	0.10676500	2.73777400
H 	-0.38812400	-0.20512300	3.06878000
C 	-1.20750000	-0.41145600	2.37333000
H 	-1.40902200	-1.48762700	2.39477100
C 	-4.29396000	-0.66826600	-1.59657200
C 	-3.82184000	0.63828900	-1.42000200
C 	-2.71399200	0.87733000	-0.59738900
C 	-2.07815100	-0.19015100	0.04874000
C 	-2.55035100	-1.49674000	-0.12787500
C 	-3.65820600	-1.73576300	-0.95050300
H 	-4.30838700	1.45530200	-1.91444500
H 	-2.35271600	1.87729900	-0.46229800
H 	-2.06386900	-2.31378700	0.36653800
H 	-4.01952100	-2.73571500	-1.08562000
H 	-5.14182800	-0.85121300	-2.22614100
H 	2.10341800	-0.64214600	-0.71882400
Al	1.54319200	0.82973700	-0.28116800
F 	1.83101000	0.50270800	1.27863500
F 	0.22186700	0.22037100	-1.00196000
F 	2.57225900	1.75509400	-1.11878200
