26

H 	1.932594333	0.916387303	0.001463727
C 	0.000000000	0.000000000	0.000000000
C 	1.355157538	-0.000000000	-0.000000000
C 	2.153418180	-1.211675658	0.000000000
O 	3.412539445	-1.245091856	-0.001962576
H 	-0.513490184	-0.961080222	0.000133189
C 	-2.621089297	3.374906760	0.015679736
C 	-1.233187597	3.580411562	0.002070482
C 	-0.361777903	2.495611996	-0.004171995
C 	-0.862378590	1.173074568	0.002633295
C 	-2.262126292	0.983619892	0.014652685
C 	-3.133293922	2.072975870	0.020931105
H 	-0.834181135	4.592065367	-0.003356006
H 	0.710071658	2.672895175	-0.015272338
H 	-2.659089106	-0.029835442	0.019305212
H 	-4.208265605	1.908579276	0.030616984
H 	-3.296910878	4.227062447	0.020960555
O 	1.478049990	-2.369339961	0.004639378
C 	2.278330995	-3.596623674	0.009499714
H 	2.902157995	-3.629641655	0.906503921
H 	2.910660186	-3.632494366	-0.881258010
H 	1.544839219	-4.403017321	0.007589291
B 	4.448960667	0.107760023	-0.004613811
F 	4.119209872	0.790297339	1.151554761
F 	4.120455881	0.784636511	-1.164047988
F 	5.679100533	-0.484868629	-0.002453486
