26

H 	2.301555270	0.818080730	0.430799010
C 	4.150789160	-0.106922490	-0.135026700
C 	2.817838830	-0.080075710	0.111229830
C 	1.970152280	-1.254715760	-0.003424270
O 	0.750332930	-1.302996140	0.312605530
H 	4.594232790	-1.056547970	-0.434924330
C 	6.972204450	3.092932330	0.123078380
C 	5.617875940	3.347612460	0.389747560
C 	4.680626720	2.320754730	0.312921190
C 	5.080533250	1.009440070	-0.034795970
C 	6.447986470	0.770421680	-0.300827540
C 	7.384972320	1.801266590	-0.222277680
H 	5.297225750	4.352056040	0.657026060
H 	3.636035720	2.534049370	0.523558450
H 	6.766910500	-0.235189190	-0.569568480
H 	8.433357750	1.599234910	-0.430202750
H 	7.699440530	3.899891180	0.184028750
O 	2.553917260	-2.360127750	-0.488808500
C 	1.715636180	-3.559764230	-0.581055660
H 	0.878333760	-3.375414270	-1.259196190
H 	1.337696960	-3.825588520	0.409784700
H 	2.380699380	-4.329798130	-0.972459990
B 	-0.140302370	-0.050303740	1.042658540
F 	-0.117396130	0.977662900	0.114791300
F 	0.565587950	0.226538530	2.201313750
F 	-1.358250140	-0.644020960	1.229288680
