29

H 	2.642503540	0.575209030	-0.631667970
C 	4.363070660	-0.254820290	0.323564710
C 	3.080192420	-0.287760880	-0.134426070
C 	2.201590760	-1.428208580	-0.045290700
O 	1.009732950	-1.346810630	-0.478562090
H 	4.769813480	-1.130494790	0.829944330
O 	5.612378080	4.273780370	-1.223821750
H 	4.714209440	4.249197140	-1.602993420
C 	5.866634980	3.097775470	-0.557623700
C 	7.128147460	2.983203930	0.059365500
C 	7.460605310	1.814292170	0.743699210
C 	6.551848100	0.756907440	0.820866080
C 	5.280472620	0.865433210	0.212907590
C 	4.946453500	2.053065900	-0.480391230
H 	7.824788140	3.814890270	-0.013145860
H 	8.435860130	1.729658790	1.217156480
H 	3.976123700	2.154035180	-0.962672930
H 	6.814221600	-0.155221570	1.352399440
C 	1.491762510	-3.721371080	0.856046610
C 	2.644669610	-2.764895170	0.517629980
H 	0.887501240	-3.940448340	-0.028934280
H 	0.831043210	-3.285817380	1.613504130
H 	1.894625720	-4.662138950	1.246515610
H 	3.307468300	-3.218216850	-0.237760510
H 	3.277734610	-2.587591890	1.396458740
Al	-0.088678080	0.037312830	-1.129700810
F 	0.977301570	1.190832510	-1.775777910
F 	-0.856266640	0.561733770	0.270213490
F 	-1.034713340	-0.740842050	-2.273583410
