29

H 	2.651441477	0.599581083	-0.575289944
C 	4.380995591	-0.254881903	0.339406656
C 	3.085781224	-0.264772902	-0.079393336
C 	2.179420908	-1.374740124	0.075123069
O 	0.986535307	-1.284878705	-0.347540604
H 	4.790285643	-1.138549691	0.829447416
O 	5.553195870	4.318561624	-1.105963496
H 	4.624005745	4.316412762	-1.400106775
C 	5.857678115	3.109711210	-0.527777809
C 	7.171659707	2.948271349	-0.047146340
C 	7.546044111	1.745099331	0.550530917
C 	6.628500186	0.700260301	0.675217476
C 	5.308768164	0.852412084	0.195355502
C 	4.933214327	2.074167018	-0.410102197
H 	7.874128228	3.771107180	-0.151613204
H 	8.561229937	1.624078133	0.920389476
H 	3.922332842	2.213647315	-0.787092282
H 	6.923590889	-0.236658203	1.141492292
C 	1.483583360	-3.742485112	0.764227134
C 	2.585481277	-2.676702295	0.737475154
H 	1.165406367	-4.006026411	-0.249192294
H 	0.602503030	-3.385088329	1.305708354
H 	1.854014481	-4.646391702	1.259086927
H 	3.479549713	-3.052267852	0.219277113
H 	2.917789178	-2.436389271	1.758449126
Al	-0.101714113	0.004562322	-1.173328288
F 	0.923090429	1.316203658	-1.505851407
F 	-1.235688745	0.331057609	0.018156239
F 	-0.641727668	-0.792610917	-2.545025618
