31

H 	2.730241740	0.028589570	1.602742590
C 	4.068485560	-0.173498900	-0.038411420
C 	3.018543000	-0.540489020	0.723551510
C 	2.018431290	-1.549493320	0.326380920
O 	0.775522740	-1.258589210	0.383661340
H 	4.254712220	-0.714697870	-0.966812120
C 	6.040192110	1.166894110	-0.689001250
C 	6.941702960	2.214703260	-0.488777350
C 	6.811662420	3.059178820	0.618437320
C 	5.759274250	2.824443340	1.506583220
C 	4.847123870	1.794584240	1.333754980
C 	4.984198110	0.938410360	0.218237680
H 	6.145503830	0.518236830	-1.556325490
H 	7.749035650	2.379477100	-1.198780790
H 	7.497359340	3.883418600	0.794811920
F 	5.621444920	3.650260890	2.592984180
H 	4.038732980	1.678686550	2.049241890
N 	2.378513400	-2.780894330	-0.095698590
C 	1.354006740	-3.698942540	-0.628124650
C 	3.719597450	-3.361842980	0.074957890
H 	0.483852720	-3.126327000	-0.946675020
H 	1.049962230	-4.418542420	0.143508540
H 	1.783048660	-4.243366780	-1.476150300
H 	4.197678950	-3.513237640	-0.901156780
H 	3.622499400	-4.335817280	0.570285930
H 	4.340760250	-2.707720750	0.685186650
Sn	-0.264653310	0.634863350	-0.403564330
Cl	0.625796570	1.771244130	1.503996890
Cl	-2.176910620	-0.734536410	-0.096477420
Cl	-1.380719970	2.546352550	-1.331001280
Cl	1.123739730	0.220106570	-2.318995840
