31

H 	2.676800069	0.086623463	1.474828987
C 	4.105614747	-0.214952672	-0.070417593
C 	3.009483847	-0.532047429	0.646447778
C 	2.024512434	-1.553454282	0.253689572
O 	0.781372919	-1.267734224	0.271830934
H 	4.353171594	-0.816114447	-0.945543486
C 	6.168124137	1.035778464	-0.610820268
C 	7.058788341	2.092675694	-0.410507396
C 	6.802653416	3.055931570	0.569045606
C 	5.638314101	2.929008192	1.328426572
C 	4.735146827	1.892639433	1.155179412
C 	5.001247517	0.914698754	0.172191195
H 	6.372036586	0.293292822	-1.379037099
H 	7.954829906	2.172145096	-1.021070395
H 	7.473324128	3.892523532	0.743572267
F 	5.376247036	3.874921623	2.281561747
H 	3.834555007	1.868033013	1.761145575
N 	2.394750637	-2.795635997	-0.129975359
C 	1.383347097	-3.725897937	-0.660186866
C 	3.726567979	-3.373798131	0.095144851
H 	0.510818183	-3.164302157	-0.990706888
H 	1.078295934	-4.440451580	0.115379455
H 	1.822171974	-4.276467829	-1.499284035
H 	4.244385925	-3.533568453	-0.859010086
H 	3.610280696	-4.343601017	0.593901858
H 	4.323577832	-2.716646170	0.725558624
Sn	-0.300437243	0.696111738	-0.242940151
Cl	0.470063139	1.490288625	1.878964787
Cl	-2.153606963	-0.780254504	-0.276184840
Cl	-1.471163509	2.704413436	-0.836150785
Cl	1.154064896	0.687295193	-2.142663152
