33

H 	1.490490870	2.225029850	-0.677715630
C 	3.294409270	1.091035030	-0.845377740
C 	1.924700420	1.232146970	-0.697689670
C 	1.001818670	0.159824020	-0.520967340
O 	-0.242623340	0.367916990	-0.289474370
H 	3.712662390	0.091547400	-0.943683180
H 	3.882316770	2.005009630	1.687798700
H 	4.969459980	0.540634520	1.307010280
H 	3.209475830	0.280484030	1.872644760
C 	3.980399800	0.942865220	1.497851240
C 	1.201375950	-2.009607790	0.785097480
C 	1.389427370	-1.303762140	-0.579662190
H 	0.171634860	-1.893980360	1.135980300
H 	1.872723860	-1.591099540	1.544204120
H 	1.422885970	-3.078134420	0.687870010
H 	0.729391190	-1.774125140	-1.320886950
H 	2.417156700	-1.427935200	-0.933160910
O 	6.877490990	5.256325470	-2.181736080
H 	7.765716160	4.910608910	-2.386478610
C 	6.039922250	4.216478390	-1.861401780
C 	4.708501020	4.540609480	-1.544780370
C 	3.813119640	3.535250540	-1.210209880
C 	4.210514730	2.176970260	-1.183385810
C 	5.553664780	1.876901380	-1.501997520
C 	6.461023790	2.876594950	-1.840229650
H 	4.399643090	5.582661080	-1.567304320
H 	2.789951980	3.808041890	-0.967958250
H 	5.887033520	0.840309880	-1.484952730
H 	7.491414060	2.622910260	-2.087290710
B 	-0.943416120	1.829559320	-0.053561420
F 	-2.256023250	1.514084660	0.205788150
F 	-0.748251140	2.545910940	-1.236169470
F 	-0.267212870	2.396181020	1.031130960
