33

H 	1.477161884	2.232708272	-0.673546018
C 	3.288806219	1.108307330	-0.834022116
C 	1.919363169	1.243345233	-0.691621771
C 	1.006504111	0.160896132	-0.529678114
O 	-0.241504551	0.351889091	-0.311395362
H 	3.708412009	0.109597660	-0.928064555
H 	3.894658058	2.039396642	1.686482469
H 	4.935775338	0.535164219	1.333500763
H 	3.168216244	0.341628999	1.901055318
C 	3.960327064	0.971858629	1.515885103
C 	1.207193894	-2.007370126	0.764446750
C 	1.407471697	-1.297716877	-0.594985502
H 	0.172777293	-1.896882609	1.102106017
H 	1.866395888	-1.586445531	1.532211757
H 	1.434789150	-3.074398070	0.668691830
H 	0.758082696	-1.767996144	-1.345088035
H 	2.438966276	-1.413483666	-0.938218120
O 	6.898074589	5.232062698	-2.203923143
H 	7.780658005	4.874970678	-2.410774752
C 	6.050801994	4.204937770	-1.872804115
C 	4.725913031	4.544483295	-1.546990933
C 	3.821994862	3.549655370	-1.204078610
C 	4.207599452	2.188702038	-1.173385196
C 	5.544552316	1.873968007	-1.499265900
C 	6.458833441	2.861782237	-1.848722555
H 	4.428002580	5.589228370	-1.571858081
H 	2.802911764	3.832422160	-0.956516943
H 	5.865960570	0.834251503	-1.479684967
H 	7.484470659	2.597374607	-2.102680001
B 	-0.953216734	1.798927873	-0.034763383
F 	-2.260477510	1.466524542	0.219375341
F 	-0.770505944	2.550748093	-1.194430335
F 	-0.278170326	2.336709075	1.062044581
