20

H 	0.277369560	-1.730565610	0.632407910
C 	-0.844182890	-0.190642140	-0.332845310
C 	0.282744260	-0.773400280	0.116541820
C 	1.607809300	-0.155785810	-0.057088030
H 	-0.740089210	0.772200350	-0.841955680
O 	2.659128520	-0.642455580	0.331588880
H 	1.598487180	0.828452100	-0.588367450
C 	-3.099474480	0.389027960	0.524049420
C 	-2.274090090	-0.683467730	-0.234485380
C 	-2.397668320	-2.034079900	0.492275320
C 	-2.839728030	-0.816730340	-1.673426250
H 	-2.289732260	-1.567012460	-2.249421540
H 	-4.150241270	0.084488760	0.578104580
H 	-3.059221150	1.359711600	0.019044730
H 	-2.733169000	0.523819830	1.546433770
H 	-3.447954540	-2.336948210	0.545350500
H 	-2.019244070	-1.977110710	1.517329910
H 	-1.850916180	-2.825157880	-0.029338400
H 	-3.890898290	-1.122228490	-1.635027460
H 	-2.787875160	0.133084940	-2.215519050
