20

H 	0.543894627	-3.281824096	1.226262828
C 	-1.604053894	-0.387257089	-0.611335720
C 	0.527458068	-1.480823650	0.237743761
C 	2.998431005	-0.272760387	-0.136392181
H 	-1.396670851	1.427657482	-1.577939041
O 	5.009990775	-1.144343975	0.576069752
H 	2.931627027	1.574767432	-1.158852900
C 	-5.838719780	0.737814894	0.999428312
C 	-4.301293346	-1.303296492	-0.432528953
C 	-4.554347142	-3.855025689	0.934404633
C 	-5.339866685	-1.540990533	-3.161425765
H 	-4.298150528	-2.969712653	-4.233474981
H 	-7.836407125	0.204646121	1.076715122
H 	-5.709703397	2.578143354	0.063402060
H 	-5.157613673	0.959949139	2.939168855
H 	-6.540082633	-4.426648844	1.009650722
H 	-3.860204298	-3.750848964	2.879095832
H 	-3.510895194	-5.349769039	-0.040970157
H 	-7.333409561	-2.093555761	-3.121927254
H 	-5.199227839	0.251903472	-4.183838649
