20

H 	0.524152508	-3.270295051	1.195077749
C 	-1.595274457	-0.360261425	-0.628986472
C 	0.534309214	-1.461514709	0.220232128
C 	3.038319231	-0.294392523	-0.107880749
H 	-1.398565914	1.459247183	-1.591065649
O 	5.025024636	-1.214065099	0.626612172
H 	3.020702977	1.565547569	-1.111853349
C 	-5.857157896	0.735156292	0.990309885
C 	-4.297407456	-1.291566832	-0.443113142
C 	-4.530936456	-3.843853931	0.930265529
C 	-5.366308250	-1.543396661	-3.162317306
H 	-4.326966864	-2.961224381	-4.250790653
H 	-7.842819361	0.159660611	1.092459333
H 	-5.781090134	2.569482540	0.035989331
H 	-5.164940860	0.989876024	2.922336298
H 	-6.515689770	-4.416192082	1.030563083
H 	-3.815818271	-3.736197760	2.867337962
H 	-3.497724653	-5.338774658	-0.055441538
H 	-7.352732145	-2.120704502	-3.089754109
H 	-5.268320523	0.251494097	-4.186724225
