20

H 	0.287816642	-1.736666522	0.648910343
C 	-0.848828766	-0.204927626	-0.323504931
C 	0.279118789	-0.783618129	0.125808580
C 	1.586701356	-0.144338581	-0.072175634
H 	-0.739086385	0.755483805	-0.835009381
O 	2.651172945	-0.605560753	0.304842985
H 	1.551350213	0.833331037	-0.613238546
C 	-3.089717448	0.390434828	0.528874686
C 	-2.276146416	-0.689674803	-0.228884465
C 	-2.410056718	-2.039991742	0.494465638
C 	-2.825735759	-0.815457072	-1.672954469
H 	-2.274483309	-1.571504259	-2.240258483
H 	-4.146848066	0.108294064	0.569773105
H 	-3.021444919	1.364294709	0.033550926
H 	-2.729291619	0.507983208	1.555341177
H 	-3.460862687	-2.342481689	0.534284153
H 	-2.042732144	-1.984863793	1.523551902
H 	-1.857885727	-2.830975859	-0.021680474
H 	-3.880673218	-1.107861999	-1.652052757
H 	-2.751312887	0.133301577	-2.213992067
