13

C 	0.642781365	0.898329445	0.163459250
C 	2.738535353	-0.985340127	0.828516291
H 	2.979252182	-2.296264002	-0.752855228
C 	-1.868451664	-0.364484403	-0.289836839
H 	1.117711946	1.912958625	-1.577409179
H 	0.407024501	2.324180340	1.642802925
H 	1.794163997	-1.200098562	4.809797224
C 	2.127486760	-2.475673504	3.224044450
H 	3.704878195	-3.713262759	3.697033658
H 	0.447263535	-3.631781831	2.941722580
O 	-2.184360052	-2.604983154	-0.387450339
H 	4.472499082	0.024103249	1.079326978
H 	-3.386367011	0.944152676	-0.558004831
