20

H 	0.254888780	-1.731492200	0.655854620
C 	-0.847307980	-0.192243060	-0.340743730
C 	0.269623090	-0.779977700	0.126243890
C 	1.589016980	-0.155151510	-0.052334210
H 	-0.733820290	0.765844810	-0.860084610
O 	2.644843540	-0.625357960	0.355674240
H 	1.572668310	0.818015280	-0.605603930
C 	-3.094217210	0.391810300	0.529500400
C 	-2.274241530	-0.683367430	-0.238414080
C 	-2.388531190	-2.038698430	0.489115990
C 	-2.841843920	-0.814802640	-1.680463330
H 	-2.288043140	-1.568284720	-2.252655440
H 	-4.148986380	0.093160340	0.578442540
H 	-3.038635160	1.366012070	0.028076720
H 	-2.720698290	0.511266280	1.553456040
H 	-3.439678900	-2.346683120	0.540949330
H 	-2.006144400	-1.975043910	1.514864470
H 	-1.831852270	-2.823060230	-0.037175330
H 	-3.896178420	-1.116219780	-1.640942230
H 	-2.779807720	0.139474000	-2.218109060
