20

H 	0.257794945	-1.738797975	0.648391866
C 	-0.849470313	-0.192276137	-0.332078700
C 	0.268488222	-0.783367276	0.126643240
C 	1.583997938	-0.155808123	-0.060272297
H 	-0.736312257	0.767731570	-0.847005725
O 	2.645181663	-0.630833451	0.325035915
H 	1.559853514	0.824593770	-0.598987623
C 	-3.097217735	0.392657830	0.528704309
C 	-2.274550171	-0.682677784	-0.234049347
C 	-2.390890409	-2.036868485	0.493087502
C 	-2.833028617	-0.815266109	-1.678135846
H 	-2.276173272	-1.570346072	-2.244703659
H 	-4.152651743	0.097049144	0.569503736
H 	-3.034862174	1.366737429	0.028674329
H 	-2.730944226	0.509851168	1.555021318
H 	-3.440951314	-2.348014765	0.537109396
H 	-2.015349348	-1.971632645	1.520816658
H 	-1.828736256	-2.819752108	-0.028970290
H 	-3.887567501	-1.115052499	-1.645701355
H 	-2.765557047	0.137272908	-2.217431136
