24

C 	0.107761941	0.480091792	0.395351939
C 	0.856262695	-0.799426385	0.331517029
H 	0.226504940	-1.553358968	-0.153017222
C 	-1.154732695	0.835497033	-0.178926752
H 	0.540888970	1.300877510	0.969733497
O 	-1.725133163	1.899095196	-0.099115501
C 	1.152012799	-1.270229761	1.783389478
H 	1.645317361	-2.246544704	1.777311301
H 	0.215315523	-1.370455828	2.342583497
H 	1.791595306	-0.559813484	2.319133504
Br	-2.059441396	-0.671145591	-1.252130319
C 	1.713720590	-0.364015561	-2.026356227
C 	2.162632522	-0.671305867	-0.579621208
C 	2.920478479	-2.016869703	-0.572820005
C 	3.100125739	0.450210125	-0.081447282
H 	3.417906504	0.288842798	0.955293415
H 	2.587286540	-0.303817698	-2.687464900
H 	1.177106342	0.589924228	-2.087967237
H 	1.047671476	-1.145978905	-2.408630062
H 	3.740338276	-1.979158108	-1.301447204
H 	2.260522491	-2.847755000	-0.852801764
H 	3.361355752	-2.239203547	0.404930929
H 	4.004070588	0.480464640	-0.702394279
H 	2.623764730	1.435330837	-0.147009607
