25

H 	1.910151520	0.926826079	0.010927672
C 	0.000000000	0.000000000	0.000000000
C 	1.346020047	-0.000000000	0.000000000
C 	2.195507793	-1.179757050	0.000000000
O 	3.412805810	-1.181303329	0.031313875
H 	-0.519756973	-0.958671232	-0.006370004
C 	-0.105227783	2.540765930	0.005670610
C 	-0.889910084	1.214302736	0.018713682
C 	-1.762408918	1.129132680	1.304746968
C 	-1.815873177	1.134190307	-1.228429122
H 	-2.391103180	0.200941803	-1.237728290
H 	-0.803895358	3.384582774	0.017502324
H 	0.515208136	2.630650867	-0.893321758
H 	0.544642163	2.631300807	0.883585366
H 	-2.469328947	1.966989790	1.323677789
H 	-1.139349217	1.181311053	2.204443027
H 	-2.336702426	0.195786638	1.335194513
H 	-2.522836498	1.972060602	-1.214785791
H 	-1.232337672	1.189601457	-2.154176818
Cl	1.373338090	-2.795806760	-0.051434418
Ti	5.156156057	0.490694928	0.157891542
Cl	6.746388518	2.032536883	0.280266877
Cl	6.414375840	-1.331208317	0.138111728
Cl	4.225788432	1.126430782	-1.774097018
Cl	4.062452837	0.997038196	2.042262514
