25

H 	2.478743920	0.800583500	-0.090144210
C 	4.254342640	-0.211956590	0.491965070
C 	2.931621560	-0.123862690	0.254596180
C 	1.963165170	-1.195315830	0.428212320
O 	0.770613840	-1.125586440	0.184822960
H 	4.657674420	-1.164669130	0.838504270
C 	4.637635010	2.229483750	-0.116064270
C 	5.266536440	0.892079300	0.323927420
C 	6.301358800	0.417974630	-0.739596030
C 	5.991559230	1.072515330	1.689152200
H 	6.459839750	0.136814880	2.017713830
H 	5.419424710	2.991252980	-0.215194940
H 	3.908094620	2.590027180	0.618623380
H 	4.134607180	2.137361400	-1.085744370
H 	7.087796220	1.175320320	-0.846262170
H 	5.823242040	0.275039290	-1.715271310
H 	6.773610550	-0.526288890	-0.442803250
H 	6.777143610	1.831494780	1.589781880
H 	5.291404810	1.400551220	2.466039550
Cl	2.582947810	-2.775866090	1.068794230
Ti	-0.723646160	0.498484790	-0.808673380
Cl	-2.087726600	1.972975390	-1.754007940
Cl	-2.197303030	-1.073082450	-0.289108630
Cl	0.043434650	1.778456110	0.861728880
Cl	0.648234040	0.156910940	-2.543354850
