25

H 	2.486624713	0.784292402	-0.128505614
C 	4.253552565	-0.211653339	0.499079339
C 	2.934147986	-0.130780493	0.245305610
C 	1.969496458	-1.205469101	0.412482026
O 	0.781207080	-1.142982644	0.153906684
H 	4.654760708	-1.155782522	0.869066542
C 	4.641821260	2.204770220	-0.191385115
C 	5.264745892	0.888085911	0.312309608
C 	6.320386815	0.377505803	-0.711076908
C 	5.959865656	1.121498660	1.683993911
H 	6.417815448	0.199153378	2.060145437
H 	5.422989749	2.964497787	-0.304932686
H 	3.896963721	2.591277388	0.513601952
H 	4.158231502	2.072921046	-1.166074077
H 	7.110136753	1.128970257	-0.828102760
H 	5.862342218	0.201062595	-1.690587967
H 	6.783895633	-0.556524557	-0.372518519
H 	6.748796421	1.874522658	1.571953677
H 	5.242955525	1.480734720	2.430708178
Cl	2.586250940	-2.781834296	1.064334667
Ti	-0.719989190	0.520094414	-0.757934652
Cl	-2.086339856	2.051007650	-1.600835677
Cl	-2.160346315	-1.136977807	-0.471015316
Cl	-0.052269517	1.637010147	1.061123751
Cl	0.716313066	0.385297402	-2.467405270
