8

H 	1.907857753	0.928800678	0.006053362
C 	0.000000000	0.000000000	0.000000000
C 	1.337040871	-0.000000000	0.000000000
C 	2.209630340	-1.190521049	0.000000000
H 	-0.566358260	-0.926866496	-0.000912507
O 	3.403546130	-1.183207956	0.030633563
Br	1.235327544	-2.987599256	-0.056707176
H 	-0.550540592	0.937433123	0.003545447
