8

H 	0.070703320	-1.835286130	-0.486975060
C 	-0.875405440	0.014318630	-0.052535850
C 	0.185117200	-0.775469380	-0.257672940
C 	1.603887010	-0.364117790	-0.223043320
H 	-0.762726890	1.071595380	0.171173260
O 	2.545816470	-1.065431660	-0.447508990
Br	1.926474830	1.593665820	0.263126220
H 	-1.882439800	-0.392821030	-0.108078260
