34

H 	1.662360020	2.179267680	-0.644925710
C 	3.474091650	1.064675630	-0.736245120
C 	2.107927010	1.195007300	-0.571580200
C 	1.214889920	0.126860820	-0.244773950
O 	-0.018104470	0.324818000	-0.003031980
H 	3.906906670	0.066111580	-0.748113570
H 	3.707855400	2.140753910	1.764378130
H 	5.216135250	1.093880620	1.433857120
H 	3.622849470	0.298835490	1.992847020
C 	4.147385510	1.163855080	1.602256510
C 	0.619120820	-2.336194720	0.198282310
C 	1.705961690	-1.315183550	-0.162303490
H 	-0.183984260	-2.336125610	-0.545464930
H 	0.168469090	-2.106790010	1.169122540
H 	1.054008750	-3.341210710	0.242772620
H 	2.171102630	-1.568968500	-1.126258000
H 	2.521662610	-1.347275280	0.576184470
O 	6.965493190	5.153444290	-2.488826550
H 	7.850499510	4.801919580	-2.697052310
C 	6.148373600	4.131114400	-2.072820390
C 	4.824127420	4.465073210	-1.738214680
C 	3.950168950	3.477710130	-1.307164330
C 	4.363708340	2.129401420	-1.193170240
C 	5.698633490	1.818959550	-1.533388130
C 	6.583937080	2.799525540	-1.971203620
H 	4.503424260	5.500327310	-1.823366960
H 	2.933141170	3.759613270	-1.049897520
H 	6.043740110	0.789284970	-1.451621350
H 	7.608880820	2.538007330	-2.232349990
Sn	-1.275421490	2.246095300	0.204792180
Cl	-2.928397000	0.662555380	0.811527170
Cl	-0.744458860	2.566486240	-2.109319160
Cl	-2.614698250	4.226454950	0.431464810
Cl	0.357856880	2.864364480	1.854476950
