34

H 	1.639367137	2.171865336	-0.742808582
C 	3.473568874	1.083732053	-0.720494335
C 	2.102484320	1.201382677	-0.611269484
C 	1.217298278	0.122965071	-0.300292449
O 	-0.025732338	0.303099642	-0.106306427
H 	3.914967666	0.090218389	-0.677400217
H 	3.639317608	2.270481315	1.744723169
H 	5.127300583	1.166202968	1.519522515
H 	3.488665925	0.445274329	2.050706809
C 	4.056784927	1.276119748	1.648306057
C 	0.639457491	-2.333710204	0.171873533
C 	1.722195669	-1.311037191	-0.191494449
H 	-0.154758408	-2.350449607	-0.580542263
H 	0.175253520	-2.091784972	1.132897589
H 	1.079794285	-3.334757807	0.237703861
H 	2.200585948	-1.575048700	-1.145716611
H 	2.528447086	-1.323874840	0.557287435
O 	7.001628286	5.095398939	-2.557157406
H 	7.885339959	4.730525633	-2.744624041
C 	6.174155947	4.094745307	-2.113166498
C 	4.851617554	4.448867139	-1.793800559
C 	3.968584793	3.481011239	-1.337949046
C 	4.372529826	2.134247422	-1.184291471
C 	5.707672088	1.805445027	-1.501976997
C 	6.601512024	2.765846629	-1.964040856
H 	4.539138180	5.482931412	-1.912153376
H 	2.951657957	3.775749531	-1.095325430
H 	6.044137083	0.776701629	-1.386412049
H 	7.626193012	2.490388033	-2.210232185
Sn	-1.271630153	2.201510817	0.268367675
Cl	-2.934067533	0.572418994	0.699780253
Cl	-0.747092646	2.769380553	-1.995449253
Cl	-2.606518001	4.145577481	0.718945133
Cl	0.377790034	2.651231084	1.953659605
