31

H 	-0.340566006	-2.072762621	0.188918291
C 	0.000000000	0.000000000	0.000000000
C 	-0.775681059	-1.092343579	0.000000000
C 	-2.263901403	-1.089907935	0.000000000
O 	-2.880539617	-1.750753996	0.876270813
H 	-0.454365542	0.987388423	-0.100409985
C 	1.487850980	-0.013274901	0.240833207
C 	1.831184880	0.675396177	1.557877312
C 	1.574530743	0.024017588	2.774384549
C 	1.847917293	0.653907717	3.990426941
C 	2.382006656	1.948075424	4.005864919
C 	2.640958685	2.605654657	2.798660925
C 	2.364040568	1.971913193	1.581513612
H 	1.849197099	-1.049214478	0.250532038
H 	1.997572948	0.509075817	-0.581166113
H 	1.144900800	-0.974337195	2.773187610
H 	1.635003036	0.131421817	4.920076542
H 	2.595320749	2.440152486	4.952396064
H 	3.059475732	3.610167970	2.802494368
H 	2.570555815	2.486727145	0.643901229
N 	-2.955887321	-0.361975407	-0.924289415
C 	-4.418629745	-0.271190273	-0.818594476
C 	-2.381072141	0.193189539	-2.154809425
H 	-4.723427937	-0.545890714	0.190882034
H 	-4.901832341	-0.949157941	-1.535798180
H 	-4.728795918	0.756418519	-1.041352113
H 	-2.424281263	1.290493716	-2.143122572
H 	-2.959482998	-0.165741677	-3.016260983
H 	-1.345161600	-0.122955762	-2.265191518
I 	-1.655955646	-2.267906655	3.183835540
I 	-0.296399439	-2.652360791	5.599372767
