70

C 	0.474005430	-0.824019920	2.108729400
C 	1.471576550	-1.711563430	1.817823050
C 	2.868386340	-1.357181600	1.601285470
O 	3.770143330	-2.181799630	1.385291280
H 	5.617675750	-4.776536430	5.965667850
H 	0.752127890	0.208392820	2.314302860
H 	1.264286660	-2.770435850	1.702892090
H 	2.545597980	-7.022075990	-1.458845550
H 	3.715797740	-5.727821210	-1.120711400
H 	5.637258490	-3.573256910	4.661480470
H 	3.615125170	-7.137880280	-0.035664670
C 	0.156587480	0.103004290	-0.172427910
H 	-0.535367580	-0.640125250	-0.547974240
H 	5.778976730	-5.300028400	4.279053810
H 	2.790361250	-2.067526010	4.348247140
H 	-0.218696350	1.078983170	0.114890790
H 	1.196966000	0.021619310	-0.461090320
N 	2.611568010	-4.985185740	1.301504540
C 	2.734580140	-5.417277830	2.596927400
N 	3.405624050	-4.525871290	3.389831790
C 	1.976878410	-5.741258990	0.213916670
H 	3.073737770	-4.106688420	1.060601780
C 	3.761615430	-4.711428530	4.800088240
H 	3.774440980	-3.695943370	2.928066860
H 	1.366786640	-6.503415320	0.708785030
C 	5.290174650	-4.576533320	4.940860560
C 	3.032337510	-6.451017260	-0.658810460
H 	-0.728914060	-5.890815230	-0.052127640
H 	3.473812690	-5.740933300	5.039351870
C 	1.062539110	-4.821354210	-0.588037950
C 	1.575193340	-3.728719590	-1.308290930
C 	0.726637060	-2.892037870	-2.037887060
C 	-0.652450820	-3.136249350	-2.061115750
C 	-1.173576570	-4.219993060	-1.347119640
C 	-0.319676990	-5.053786090	-0.615213710
H 	2.644661000	-3.525529190	-1.300198260
H 	1.138735940	-2.048476770	-2.588204090
H 	-1.313278240	-2.487653780	-2.633073420
H 	-2.244371820	-4.415021670	-1.355751050
C 	2.918858990	-3.767210070	5.732462590
C 	3.324918330	-3.999318900	7.206269840
H 	2.647317380	-3.451337390	7.873124360
H 	4.343838950	-3.652107980	7.411799830
H 	3.264874280	-5.063787010	7.468086120
C 	1.424371870	-4.127826530	5.571788440
H 	1.240668690	-5.172801490	5.843372440
H 	0.807890750	-3.486014790	6.214207590
H 	1.095392530	-3.999296960	4.535736330
C 	3.125552280	-2.278240640	5.369909810
H 	4.176346150	-1.976637720	5.460762890
H 	2.539148190	-1.641010200	6.043693120
S 	2.095182600	-6.885314930	3.154882950
O 	3.122191730	-0.013410260	1.666123580
C 	4.518940300	0.369468280	1.511630940
H 	4.895269140	0.056857130	0.532433890
H 	5.127580180	-0.091220670	2.296189160
H 	4.526817840	1.457078970	1.602645160
C 	-0.808794550	-1.216929120	4.162482080
C 	-0.907504520	-1.232196960	2.604801760
C 	-1.317810810	-2.641139880	2.126544740
C 	-1.986971410	-0.203888290	2.187355340
H 	-2.184948260	-0.241709310	1.112084730
H 	-1.778716200	-1.494119090	4.594293300
H 	-0.543701200	-0.218225950	4.531570570
H 	-0.055429240	-1.926259290	4.514476660
H 	-2.331998180	-2.869426720	2.475383670
H 	-0.653217390	-3.418388670	2.518437380
H 	-1.308410470	-2.708614780	1.033883120
H 	-2.925655740	-0.419413710	2.711989900
H 	-1.682109570	0.818093380	2.446163610
