27

H 	0.952233786	-2.466988167	-0.074140065
C 	-1.761575883	0.113368186	1.771094636
C 	-0.264189452	-0.868275699	-0.553768064
C 	1.295552996	1.149666521	-1.828606107
O 	3.527615101	0.995429567	-2.333309856
H 	-2.729798466	1.847553673	1.172084176
H 	-1.629248726	-1.514263753	-1.983316265
H 	1.088613080	-0.796598696	4.645283214
C 	0.004029571	0.829293463	3.971133997
H 	1.357849057	2.286059222	3.400084307
H 	-1.088507566	1.566474486	5.563809538
C 	-7.705066647	-5.098814295	3.998746016
C 	-8.295599828	-2.695377493	3.096048463
C 	-6.369492333	-1.038710174	2.385419722
C 	-3.821127598	-1.736262479	2.558631059
C 	-3.258553252	-4.161705147	3.470681448
C 	-5.175567752	-5.823560396	4.182596109
H 	-10.257532331	-2.101551284	2.943910296
H 	-6.861250610	0.832160867	1.686392526
H 	-1.305768355	-4.776493733	3.636023996
H 	-4.689552727	-7.693918099	4.883080212
H 	-9.198608555	-6.396510971	4.553012978
H 	0.220243632	2.893602665	-2.348684141
B 	8.088677621	-2.394714282	-1.505419590
F 	6.735433350	-4.034652806	-0.172507192
F 	9.294607677	-0.539283987	-0.336366884
F 	8.361563000	-2.718714758	-3.970766442
