30

H 	1.448654170	2.206731620	-0.684799220
C 	3.369362500	1.232028880	-0.467421420
C 	1.996021040	1.305288410	-0.429233070
C 	1.171739060	0.196208340	-0.026927320
O 	-0.093109290	0.187846040	-0.085875010
H 	3.827399550	0.255997560	-0.320779330
H 	5.042073190	1.553643640	1.781707640
H 	3.461683650	0.688423850	2.275364430
H 	3.472177240	2.536789710	2.003531470
C 	3.965771400	1.576389000	1.912003620
O 	1.809080090	-0.886983460	0.451417270
C 	0.976961440	-2.036921820	0.823007620
H 	0.431292890	-2.398392310	-0.052676260
H 	0.272293900	-1.748983190	1.607415570
H 	1.686037070	-2.783520520	1.182340750
C 	5.579489780	1.861249190	-1.389351740
C 	6.490860370	2.772614060	-1.915811900
C 	6.128721410	4.120144970	-2.049201450
C 	4.858265180	4.547560930	-1.649069070
C 	3.963422910	3.618938120	-1.130833130
C 	4.278508560	2.250905920	-0.990596690
H 	5.857433980	0.813893750	-1.284064990
H 	7.479454960	2.438222830	-2.221251940
H 	6.833671360	4.839798390	-2.459136170
H 	4.552057210	5.587139800	-1.731515230
F 	2.741077180	4.073008460	-0.719055340
Al	-1.406413590	1.364272350	-0.752429580
F 	-1.713741920	0.735075100	-2.280444410
F 	-0.631972400	2.867873280	-0.768390180
F 	-2.635778710	1.211322950	0.378753690
