26

H 	1.990602182	0.965940791	0.076322222
C 	0.000000000	0.000000000	0.000000000
C 	1.489299458	-0.000000000	0.000000000
C 	2.386734034	-1.106294640	0.000000000
O 	3.607474713	-1.064393846	0.028143102
H 	-0.362493370	-1.009201208	-0.215668969
H 	-1.670057855	1.005365855	-0.964943125
H 	-0.315781392	0.633914504	-2.060707586
C 	-0.578564404	0.971714159	-1.052414786
H 	-0.191198231	1.988170595	-0.926067419
I 	1.447752147	-3.153463075	-0.096438382
C 	-1.091942277	0.894590485	4.116786947
C 	-1.119537241	-0.422711378	3.644005123
C 	-0.763645725	-0.700871938	2.322381163
C 	-0.397204361	0.336919427	1.449123464
C 	-0.356123739	1.654951134	1.935782026
C 	-0.707274293	1.931879518	3.259010045
H 	-1.414528627	-1.234346922	4.305518508
H 	-0.770592965	-1.726177475	1.960574989
H 	-0.056857990	2.470173065	1.281848170
H 	-0.678468684	2.957064222	3.621531582
H 	-1.362083957	1.110869332	5.147962392
B 	4.911984935	0.844909964	-0.004177692
F 	4.354325094	1.382049075	1.089485532
F 	4.470824673	1.240262536	-1.204765730
F 	6.058317685	0.180219367	0.096552338
