26

H 	  1.990602	  0.965941	  0.076322
C 	  0.000000	  0.000000	  0.000000
C 	  1.489299	  0.000000	  0.000000
C 	  2.386734	 -1.106295	  0.000000
O 	  3.607475	 -1.064394	  0.028143
H 	 -0.362493	 -1.009201	 -0.215669
H 	 -1.670058	  1.005366	 -0.964943
H 	 -0.315781	  0.633915	 -2.060708
C 	 -0.578564	  0.971714	 -1.052415
H 	 -0.191198	  1.988171	 -0.926067
I 	  1.447752	 -3.153463	 -0.096438
C 	 -1.091942	  0.894590	  4.116787
C 	 -1.119537	 -0.422711	  3.644005
C 	 -0.763646	 -0.700872	  2.322381
C 	 -0.397204	  0.336919	  1.449123
C 	 -0.356124	  1.654951	  1.935782
C 	 -0.707274	  1.931880	  3.259010
H 	 -1.414529	 -1.234347	  4.305519
H 	 -0.770593	 -1.726177	  1.960575
H 	 -0.056858	  2.470173	  1.281848
H 	 -0.678469	  2.957064	  3.621532
H 	 -1.362084	  1.110869	  5.147962
B 	  4.911985	  0.844910	 -0.004178
F 	  4.354325	  1.382049	  1.089486
F 	  4.470825	  1.240263	 -1.204766
F 	  6.058318	  0.180219	  0.096552
