22

H 	1.960452511	0.907461654	0.001529382
C 	0.000000000	0.000000000	0.000000000
C 	1.363097396	0.000000000	0.000000000
C 	2.139598022	-1.200096879	0.000000000
O 	3.372461646	-1.307366819	0.000273986
H 	-0.512518146	-0.961726917	0.000297302
C 	-2.604626598	3.369805696	0.008593344
C 	-1.216076774	3.575612658	-0.005805861
C 	-0.346745900	2.490890771	-0.009080248
C 	-0.854322542	1.168539914	0.001408480
C 	-2.256413076	0.978991657	0.015154107
C 	-3.123052910	2.069661697	0.019351410
H 	-0.817318556	4.587025501	-0.014550243
H 	0.725719034	2.664593159	-0.020322130
H 	-2.654174418	-0.033856617	0.023364982
H 	-4.198414048	1.909990426	0.030611677
H 	-3.278530658	4.223455262	0.011277949
F 	1.453649304	-2.371057200	-0.002193392
Al	4.830065839	-0.065379646	0.021599443
F 	4.028229665	1.424268049	0.004643332
F 	5.632568451	-0.436642548	-1.396522170
F 	5.581321254	-0.430705649	1.469268883
