30

H 	-1.150390742	-1.787632496	0.001473559
C 	0.000000000	0.000000000	0.000000000
C 	-1.165118169	-0.703557773	0.000000000
C 	-2.483912582	-0.105508882	0.000000000
O 	-3.511586426	-0.826970027	-0.011315343
H 	-0.083261992	1.088258845	0.023824598
O 	2.395075780	1.572732492	0.610601321
H 	1.470386739	1.820983676	0.780898921
C 	2.475934182	0.260085121	0.212778484
C 	3.770796745	-0.262321881	0.096541378
C 	3.954322289	-1.590926251	-0.271589123
C 	2.847500438	-2.419970487	-0.530395957
C 	1.566218333	-1.904300252	-0.424501344
C 	1.336681632	-0.551425066	-0.059059983
H 	4.613906938	0.388662975	0.311729574
H 	4.963265420	-1.987930475	-0.356738552
H 	0.714111880	-2.536699399	-0.656040176
H 	2.995382090	-3.455644986	-0.823834477
C 	-4.154147890	1.834411009	0.035902777
C 	-2.682619913	1.404072441	0.011233013
H 	-4.661890202	1.448238539	0.925010310
H 	-4.689194917	1.453918295	-0.839386675
H 	-4.223111438	2.927516022	0.040478535
H 	-2.147709764	1.809503955	0.882792647
H 	-2.174707035	1.816993325	-0.872519394
Ti	-4.093550822	-2.922872784	-0.059472695
Cl	-4.600311563	-5.107496128	-0.105196780
Cl	-2.915876669	-2.946752325	-1.990297888
Cl	-3.039009755	-2.996464601	1.934525461
Cl	-6.180365129	-2.138116139	-0.113686677
