28

H 	0.725775850	-1.676746160	0.458148590
C 	-0.677014580	-0.021371770	0.922400160
C 	0.566827500	-0.601385300	0.382147700
C 	1.560450950	0.157360230	-0.279036500
O 	2.548910570	-0.339997890	-0.916508750
H 	-0.588096300	1.074747070	0.947182050
H 	-1.804876800	-0.054619290	2.797308050
H 	-0.064789180	-0.312469100	3.001226750
C 	-0.925872570	-0.539943710	2.363697210
H 	-1.079260130	-1.623752180	2.378474270
H 	1.489683090	1.253755130	-0.260355250
C 	-1.597212800	0.369447350	-1.438700240
C 	-1.904786610	-0.317969680	-0.088730540
C 	-3.187238150	0.294024160	0.507760720
C 	-2.091957140	-1.833141060	-0.315463840
H 	-2.273330240	-2.368706210	0.623178020
H 	-2.451593200	0.256133100	-2.116492810
H 	-0.725630420	-0.078029420	-1.930199190
H 	-1.415894580	1.444388200	-1.307492360
H 	-3.998987290	0.213721930	-0.226608000
H 	-3.055017930	1.357680620	0.744994430
H 	-3.513399710	-0.226338730	1.414307010
H 	-2.964769240	-1.996742890	-0.959532760
H 	-1.224987050	-2.279744480	-0.814609040
Al	2.758131430	-2.173371620	-1.386896060
F 	1.274102330	-2.439185640	-2.152705610
F 	2.824486710	-2.933242530	0.117516300
F 	4.131722520	-2.221968470	-2.335846280
