28

H 	0.725775853	-1.676746157	0.458148592
C 	-0.677014576	-0.021371766	0.922400157
C 	0.566827502	-0.601385303	0.382147699
C 	1.560450946	0.157360229	-0.279036500
O 	2.548910574	-0.339997891	-0.916508750
H 	-0.588096299	1.074747074	0.947182052
H 	-1.804876800	-0.054619289	2.797308047
H 	-0.064789182	-0.312469101	3.001226754
C 	-0.925872570	-0.539943714	2.363697213
H 	-1.079260130	-1.623752177	2.378474271
H 	1.489683088	1.253755133	-0.260355247
C 	-1.597212804	0.369447349	-1.438700238
C 	-1.904786612	-0.317969677	-0.088730541
C 	-3.187238154	0.294024163	0.507760721
C 	-2.091957145	-1.833141059	-0.315463844
H 	-2.273330242	-2.368706210	0.623178020
H 	-2.451593197	0.256133095	-2.116492813
H 	-0.725630422	-0.078029417	-1.930199194
H 	-1.415894580	1.444388201	-1.307492357
H 	-3.998987289	0.213721926	-0.226607997
H 	-3.055017926	1.357680617	0.744994435
H 	-3.513399706	-0.226338727	1.414307014
H 	-2.964769245	-1.996742895	-0.959532756
H 	-1.224987052	-2.279744483	-0.814609036
Al	2.758131426	-2.173371619	-1.386896058
F 	1.274102334	-2.439185641	-2.152705614
F 	2.824486710	-2.933242530	0.117516302
F 	4.131722518	-2.221968471	-2.335846282
