28

H 	0.705901410	-1.675269408	0.375638069
C 	-0.684370779	-0.037378247	0.925411393
C 	0.564770318	-0.594467121	0.377865348
C 	1.591454010	0.191898219	-0.192593298
O 	2.585100698	-0.279048699	-0.840270954
H 	-0.608566463	1.058723585	0.962097046
H 	-1.831976013	-0.152869811	2.785248127
H 	-0.080269695	-0.285797433	3.011920520
C 	-0.914724174	-0.573717138	2.364126838
H 	-0.989509204	-1.665109221	2.375960957
H 	1.544883144	1.284824439	-0.089989313
C 	-1.552811539	0.240333486	-1.464647280
C 	-1.907950917	-0.344627087	-0.078225698
C 	-3.166045422	0.361361664	0.463967684
C 	-2.164084036	-1.859197432	-0.211666544
H 	-2.418051531	-2.319383275	0.749140148
H 	-2.412536258	0.151483256	-2.138755732
H 	-0.714292603	-0.295127916	-1.924500307
H 	-1.294296069	1.304939501	-1.393680370
H 	-3.980716315	0.256421832	-0.263253309
H 	-2.990095708	1.433609260	0.616727428
H 	-3.512498469	-0.071308036	1.407996998
H 	-3.011949477	-2.022957726	-0.887643036
H 	-1.301929336	-2.383335840	-0.637229361
Al	2.738395700	-2.071283430	-1.463115959
F 	1.296439605	-2.192857713	-2.334149858
F 	2.680656310	-2.970652929	-0.037939279
F 	4.164449842	-2.106675114	-2.329276229
