20

H 	1.916997437	0.924483785	-0.070062198
C 	0.000000000	0.000000000	0.000000000
C 	1.348495851	-0.000000000	0.000000000
C 	2.221443477	-1.204423097	0.000000000
H 	-0.520804758	-0.959374362	0.009345622
O 	3.397029526	-1.136731348	-0.372255238
N 	1.652551821	-2.404889068	0.392114429
H 	0.825378968	-2.414500320	0.975499540
H 	2.293695651	-3.184275389	0.490657286
C 	-2.687998893	3.339617687	-0.126607905
C 	-1.305014191	3.566361818	-0.077594439
C 	-0.415229569	2.495271231	-0.035474357
C 	-0.887608361	1.164808742	-0.044943429
C 	-2.281465141	0.954647424	-0.094747339
C 	-3.173277841	2.028311555	-0.135396659
H 	-0.922287525	4.584655953	-0.069796407
H 	0.652942906	2.691354622	0.005738410
H 	-2.662620763	-0.065172874	-0.101012949
H 	-4.244288780	1.841871878	-0.173258613
H 	-3.378229073	4.179519405	-0.157767945
