20

H 	0.099148507	-1.490568101	1.140455599
C 	-0.840079175	-0.157706738	-0.229139269
C 	0.205574084	-0.637526410	0.474297581
C 	1.570956654	-0.049006958	0.519550725
H 	-0.693011987	0.738546493	-0.834800472
O 	2.343975700	-0.308544835	1.447042147
N 	1.921232662	0.829135288	-0.492715496
H 	1.441818549	0.802640606	-1.383841543
H 	2.890342578	1.127431657	-0.500739929
C 	-4.867389577	-1.623188731	-0.395113224
C 	-3.911457369	-2.312106568	0.365181281
C 	-2.597936183	-1.852794814	0.431669093
C 	-2.206241991	-0.686168308	-0.260371424
C 	-3.180295865	-0.005317043	-1.020072377
C 	-4.496466222	-0.466655277	-1.087892340
H 	-4.194674442	-3.212852643	0.905466439
H 	-1.870682425	-2.402421952	1.023405188
H 	-2.894577084	0.895147779	-1.561256439
H 	-5.230534693	0.074898671	-1.680446569
H 	-5.891078092	-1.987079676	-0.444799753
