24
GO, R2=Ph
H	 0.83345051	-1.35209109	 1.20167740
C	-0.83092072	 0.03538951	 0.93442801
C	 0.35139657	-0.78131674	 0.40158875
C	 1.39689343	 0.07225735	-0.26739819
O	 2.40703452	-0.34587328	-0.75774611
H	-1.19392452	 0.69150371	 0.13740680
H	 0.00939092	-1.50634328	-0.34451216
H	-0.05768346	 0.24518214	 2.94899716
C	-0.44138171	 0.87842746	 2.14736270
H	 0.32560687	 1.60312788	 1.87585802
H	-1.31355949	 1.41759590	 2.51749654
C	-4.04067044	-2.67858482	 2.01857462
C	-4.31865374	-1.53007797	 1.26695277
C	-3.28313086	-0.65450113	 0.91718762
C	-1.96962468	-0.92743114	 1.31904430
C	-1.69164136	-2.07593799	 2.07066615
C	-2.72716424	-2.95151482	 2.42043130
H	-5.32378380	-1.32122463	 0.95944130
H	-3.49585113	 0.22436701	 0.34202649
H	-0.68651131	-2.28479133	 2.37817763
H	-2.51444398	-3.83038297	 2.99559244
H	-4.83308023	-3.34859962	 2.28622427
H	 1.16279025	 1.11629180	-0.25802988
H	 3.62898812	-1.04016615	-1.71419100
