35

H 	1.419241085	1.785709699	0.969575705
C 	3.441384077	1.030321045	0.472307829
C 	1.955365757	0.924290817	0.575558875
C 	1.105009289	-0.062532844	-0.071182463
O 	0.004874842	0.283259729	-0.600963349
H 	3.862437028	0.093557700	0.089386944
H 	5.168201510	1.450031056	1.742553938
H 	3.872414275	0.559779786	2.572601540
C 	4.082332946	1.349572730	1.842003725
H 	3.685612456	2.291554321	2.240962079
N 	1.505504706	-1.376555983	-0.160978305
C 	0.713458492	-2.301759446	-0.979808690
C 	2.421839507	-2.006802274	0.794910841
H 	0.243907510	-1.751386128	-1.795635958
H 	-0.074582068	-2.785890749	-0.384119027
H 	1.379874554	-3.075094381	-1.378626878
H 	3.299460002	-2.423305688	0.283302808
H 	1.901903167	-2.825330802	1.312258194
H 	2.747526875	-1.285171573	1.543613849
C 	3.803238815	2.141879679	-0.590705520
C 	5.288496072	2.224798926	-0.855547448
C 	5.923120246	1.252272877	-1.647160095
C 	7.300704416	1.299858770	-1.876178463
C 	8.070632900	2.326576407	-1.315654145
C 	7.450648134	3.303410948	-0.529716578
C 	6.071227695	3.250286225	-0.302326920
H 	3.265964441	1.913649201	-1.517529230
H 	3.420516792	3.104325206	-0.231833614
H 	5.328525762	0.457462458	-2.096489477
H 	7.773227591	0.541700613	-2.497848385
H 	9.142641056	2.367862276	-1.496270626
H 	8.039475030	4.109436873	-0.096332712
H 	5.593486505	4.016215823	0.306437387
I 	-0.029100908	2.720641459	-1.633549083
I 	0.026953929	5.255405264	-2.827637018
