67

C 	-1.399552598	0.793338289	1.855207095
C 	-0.432366920	-0.086956109	1.436743817
C 	-0.125653608	-1.367527017	2.046399735
O 	0.849032981	-2.040326542	1.642962487
H 	0.745818781	-3.779097735	-3.769351664
H 	-1.938982121	0.580879127	2.776194784
H 	0.200395985	0.176020974	0.598127072
H 	5.426933732	1.330727418	1.134742375
H 	4.495539283	0.025247690	1.888198450
H 	0.707063774	-4.023728412	-2.012306914
H 	5.322534369	-0.264499533	0.339945280
C 	-3.434983616	0.009843160	0.738434594
H 	-3.063054596	0.262390132	-0.245386854
H 	2.154919656	-3.352659576	-2.783092112
H 	-1.379006481	-2.062434063	-0.543375241
H 	-4.101773005	0.706479163	1.232856568
H 	-3.453532840	-1.033268903	1.031669336
N 	2.661948239	-0.211497692	-0.136156020
C 	2.003156223	-0.339200679	-1.350328954
N 	1.081073011	-1.372851447	-1.368246712
C 	3.519307799	0.940193927	0.157206690
H 	2.354162675	-0.805690839	0.631873008
C 	0.539648226	-1.919417065	-2.617021474
H 	1.032833456	-1.955523708	-0.535209625
H 	3.819992437	1.329057127	-0.820128338
C 	1.059874022	-3.357622657	-2.809498161
C 	4.771022975	0.477861580	0.927256604
H 	3.202179313	3.540860890	-0.604596686
H 	0.953838147	-1.288546720	-3.411293861
C 	2.787129643	2.058362862	0.900642464
C 	2.172778090	1.825979243	2.141261121
C 	1.526520411	2.859069871	2.824118789
C 	1.494260021	4.148537307	2.282658514
C 	2.105489958	4.392317755	1.050022458
C 	2.741430979	3.351996030	0.363463891
H 	2.191840950	0.828867478	2.576189053
H 	1.041849261	2.657491364	3.777208196
H 	0.980486058	4.949868870	2.808185871
H 	2.073948427	5.388709251	0.614026174
C 	-1.021797604	-1.769187465	-2.683351228
C 	-1.547912375	-2.352241205	-4.014521383
H 	-2.613828104	-2.120522176	-4.132341447
H 	-1.439919026	-3.441332903	-4.057552038
H 	-1.014960540	-1.921013098	-4.871875849
C 	-1.371894181	-0.265743617	-2.635071596
H 	-0.912623568	0.273301875	-3.471715012
H 	-2.458856070	-0.125037663	-2.690015121
H 	-1.011053017	0.190984091	-1.709401054
C 	-1.704481023	-2.487843011	-1.498694094
H 	-1.481870560	-3.561128924	-1.489988958
H 	-2.793717689	-2.374012391	-1.560978792
O 	2.215270593	0.404296823	-2.318077236
C 	-0.981268512	-1.891926978	3.192386019
H 	-0.633163400	-2.888668760	3.471753156
H 	-2.038970603	-1.937702822	2.904251588
H 	-0.910096000	-1.228214952	4.064003668
C 	-1.793308232	4.838670424	0.493891476
C 	-1.031077762	3.928059600	-0.248325812
C 	-0.895757690	2.609517967	0.177106480
C 	-1.528551218	2.169149711	1.356739560
C 	-2.297647765	3.093848220	2.091380498
C 	-2.424126521	4.417724994	1.670052722
H 	-0.528560804	4.249752099	-1.156986572
H 	-0.284828663	1.929324461	-0.407097243
H 	-2.793181334	2.765355143	3.003833588
H 	-3.015670398	5.118951479	2.254679531
H 	-1.892110065	5.868966407	0.159352901
