23

H 	1.916715381	0.925448824	0.070182117
C 	0.000000000	0.000000000	0.000000000
C 	1.350454441	0.000000000	0.000000000
C 	2.199020953	-1.197723523	0.000000000
O 	3.383056613	-1.177027672	0.440366814
H 	-0.537634647	-0.950573341	-0.005649129
C 	-2.259506094	1.002365171	0.045535873
C 	-3.121593498	2.100024258	0.087478437
C 	-2.607562469	3.398640419	0.136108554
C 	-1.220254735	3.559800906	0.141446874
C 	-0.337386627	2.492944980	0.101269312
C 	-0.859814698	1.180848836	0.049040141
H 	-2.667470505	-0.005383730	0.009922472
H 	-4.197924521	1.947399329	0.084510977
H 	-3.252613155	4.272126852	0.171281307
F 	-0.714684558	4.828344733	0.190627084
H 	0.731093949	2.688382364	0.119136175
N 	1.710761035	-2.368589340	-0.480432349
H 	2.315703019	-3.181974226	-0.468830064
H 	0.838065883	-2.413354178	-0.988158958
Zn	4.466184132	0.287494450	1.440833733
Cl	5.708611264	-0.753575938	2.848511881
Cl	3.946421067	2.264167305	0.699961405
