29

H 	1.941763860	2.265923440	1.134694190
C 	3.709162960	1.074598580	0.451815110
C 	2.251414160	1.325418980	0.682295330
C 	1.182954310	0.479516530	0.236329330
O 	-0.043025960	0.763582340	0.322763050
H 	3.886270480	0.004954520	0.312713910
H 	5.638821790	1.491361820	1.378383860
H 	4.362808690	1.025227870	2.529864410
C 	4.575161240	1.596624200	1.619175900
H 	4.371859890	2.652196530	1.830515270
O 	1.576203080	-0.693716990	-0.309784620
C 	0.517052850	-1.545789640	-0.849480100
H 	-0.071399490	-0.989012910	-1.584450490
H 	-0.136074720	-1.887881140	-0.041185350
H 	1.043321680	-2.381166890	-1.312231040
C 	4.022991790	3.175476560	-1.001376490
C 	4.265871880	3.802106180	-2.224739740
C 	4.501441890	3.031439230	-3.369903040
C 	4.494575260	1.634393600	-3.288324840
C 	4.244574520	1.035381350	-2.056870190
C 	4.015833060	1.771357980	-0.885357180
H 	3.829141730	3.780693620	-0.118866930
H 	4.266477770	4.887866010	-2.286202650
H 	4.688679750	3.513697790	-4.326670690
H 	4.679818640	1.009955730	-4.158501730
F 	4.246819460	-0.339623260	-1.996708890
Zn	-0.973682540	2.618801770	0.613915340
Cl	0.077658570	3.736905280	2.141241090
Cl	-2.578949310	2.631209190	-0.811136910
