29

H 	1.947002265	1.920026984	1.685561167
C 	3.675064352	1.037025371	0.556612250
C 	2.234311013	1.221048531	0.906378184
C 	1.152837308	0.608543142	0.186285312
O 	-0.065252703	0.892102442	0.331196357
H 	3.871775309	-0.041941542	0.476905426
H 	5.654744905	1.460221555	1.366395700
H 	4.414783134	1.177174775	2.609323008
C 	4.607760584	1.636058555	1.632465449
H 	4.451798624	2.717398268	1.717890133
O 	1.533854227	-0.342739081	-0.692529864
C 	0.472724855	-0.965351986	-1.479898603
H 	-0.034688893	-0.207918565	-2.084310691
H 	-0.250134580	-1.451457850	-0.818898230
H 	0.984755712	-1.692833240	-2.109878773
C 	3.456400441	2.885976089	-1.211085551
C 	3.742233538	3.423558238	-2.468569110
C 	4.541052912	2.712088385	-3.370750823
C 	5.054209227	1.459915534	-3.014658882
C 	4.751303317	0.949890671	-1.756992705
C 	3.960586337	1.631391716	-0.827432068
H 	2.823267849	3.437324796	-0.519376634
H 	3.338681565	4.395016848	-2.742696110
H 	4.766442713	3.125506881	-4.350904825
H 	5.678909888	0.881846349	-3.690318244
F 	5.262213417	-0.281735967	-1.416648021
Zn	-0.971262252	2.608386483	1.098924240
Cl	0.503387525	4.195559303	0.972300673
Cl	-2.971215298	2.079415585	1.646627145
