25

H 	-1.878924288	-0.967350053	0.011637347
C 	0.000000000	0.000000000	0.000000000
C 	-1.359825302	-0.014104667	0.000000000
C 	-2.146151864	1.185018648	0.000000000
O 	-3.416473094	1.163733632	0.018119353
H 	0.581572146	0.923407185	-0.013425047
O 	0.701180901	-1.136800096	0.022438282
C 	2.168405918	-1.008483881	-0.000244718
C 	2.756475422	-2.405622752	0.060593645
H 	2.468838076	-0.400643135	0.862867518
H 	2.447587956	-0.487830033	-0.925136866
H 	2.452484640	-2.915914177	0.980578824
H 	3.850727420	-2.339771585	0.043846790
H 	2.430713188	-3.002174697	-0.797897691
C 	-1.386484890	3.056973237	1.511366836
C 	-1.536115449	2.571952598	0.048193632
H 	-0.697720807	2.416318018	2.073429401
H 	-2.356709786	3.044121178	2.018008805
H 	-0.999114239	4.081279732	1.528563451
H 	-0.567847983	2.600286294	-0.462453619
H 	-2.217939961	3.237588113	-0.490931337
B 	-4.375412644	-0.197028773	0.093363555
F 	-4.000092048	-0.825052430	1.273649568
F 	-4.059426234	-0.929254888	-1.042766832
F 	-5.640120877	0.327978533	0.102691410
