30

H 	2.089136087	0.524507384	-0.021786739
C 	0.000000000	0.000000000	0.000000000
C 	1.348893771	-0.263117683	-0.000000000
C 	1.872780172	-1.606288130	-0.000000000
O 	3.095495238	-1.916162258	0.045831160
H 	-0.674320634	-0.840687042	0.144544400
H 	0.191844281	0.464885109	-2.731798714
H 	-1.577054423	0.033756045	-2.323196369
H 	-0.292235599	-1.314883143	-2.454989310
C 	-0.536322437	-0.261093804	-2.390793801
O 	0.963394450	-2.598218675	-0.064596998
C 	1.484946321	-3.965623093	-0.048217954
H 	2.040311824	-4.143035876	0.876480080
H 	2.142323058	-4.125332896	-0.906980907
H 	0.599690290	-4.599603240	-0.104798266
C 	-1.974790387	1.370955169	0.596176341
C 	-2.637710303	2.582320159	0.775623919
C 	-1.977102410	3.785648777	0.496382591
C 	-0.656780429	3.766888021	0.037134299
C 	-0.016360268	2.545430614	-0.129359777
C 	-0.635101900	1.310634954	0.147310168
H 	-2.487399607	0.435038951	0.809266527
H 	-3.665434761	2.591504183	1.129179128
H 	-2.486304751	4.736854425	0.629889250
H 	-0.118500082	4.680908726	-0.198159384
F 	1.262623640	2.562058421	-0.609173971
B 	4.395926902	-0.823276958	0.095891757
F 	5.469418705	-1.669223922	0.140984540
F 	4.181014722	-0.083635228	1.242843097
F 	4.270221507	-0.095642985	-1.073159338
