17
C4H8BF3O optimized with ADF in AMS.
H        0.83870513621268      -1.30240444965864       1.14055787422491
C       -0.79028532341590       0.15189848636434       0.93714365896279
C        0.35607405779569      -0.68519529675742       0.36670198887539
C        1.45847135262754       0.04708978888223      -0.36227126850176
O        1.46751210210268       1.22405240578274      -0.65304200948760
H       -1.13597064167780       0.85170707191872       0.16825955789536
H       -0.01824245234202      -1.42093464886780      -0.36528585204729
H       -0.12981819906980       0.24130381983243       3.01593250549400
C       -0.43734748053769       0.92184151633167       2.21308064777980
H        0.37410657959858       1.63532936558038       2.04552401657734
H       -1.30358924630474       1.48601175606103       2.57397394193748
H       -1.63148048573242      -0.52057506406401       1.14436845838160
H        2.31393501309351      -0.60816620558002      -0.66234636115166
B        1.03810556358661       4.34937044785235      -0.90017527007114
F        1.56704977465463       4.49401682804260       0.30632652070886
F       -0.26850789410232       4.16754040671238      -1.03114257026950
F        1.80268218351077       4.45432888156700      -1.97643729930856
