32

H 	2.009569094	0.955080048	0.101316856
C 	0.000000000	0.000000000	0.000000000
C 	1.497840064	0.000000000	-0.000000000
C 	2.325943879	-1.162762764	-0.000000000
O 	3.586731924	-1.066176357	0.148134660
H 	-0.357896327	-0.699112818	-0.771860983
H 	-1.666273766	1.376968782	-0.300696122
H 	-0.229113035	1.757611601	-1.279897457
C 	-0.571639891	1.402239222	-0.300777981
H 	-0.246180751	2.118981987	0.461228406
C 	2.757828455	-3.678544033	-0.237797136
C 	1.727205224	-2.546233090	-0.185571217
H 	3.339197001	-3.723112625	0.688576872
H 	3.463760944	-3.534424441	-1.062175640
H 	2.251134849	-4.639829527	-0.376400021
H 	1.011641787	-2.704586745	0.634931157
H 	1.114022160	-2.531050675	-1.099679475
O 	-2.946080530	-2.953873656	2.725084390
H 	-3.246491937	-3.203494590	1.832968447
C 	-1.950881368	-2.005062906	2.624713604
C 	-1.395406903	-1.529730318	3.823253839
C 	-0.391835386	-0.563088593	3.772529604
C 	0.063589915	-0.062253890	2.547330651
C 	-0.495014285	-0.539282820	1.349302913
C 	-1.496004840	-1.517665062	1.392528034
H 	-1.757861843	-1.925425760	4.768337811
H 	0.046831104	-0.197292244	4.697826622
H 	-1.928161505	-1.896596208	0.465896461
H 	0.857423392	0.679405000	2.526156636
Zn	4.738844493	0.535257385	0.773037646
Cl	6.590055260	0.516509550	-0.308826218
Cl	3.598630480	1.600934167	2.289646928
