32

H 	1.388361830	1.940464100	1.125110260
C 	3.467450940	1.345422310	0.593752640
C 	1.974776010	1.220990420	0.556521680
C 	1.236162310	0.309531850	-0.258484950
O 	-0.033548480	0.385336020	-0.334337530
H 	3.906341080	0.342677030	0.721204140
H 	5.026779790	2.318215540	1.774447030
H 	3.602245040	1.826583420	2.723418590
C 	3.934439920	2.241172520	1.763885940
H 	3.521200440	3.250784720	1.660038650
C 	1.001024960	-1.743702530	-1.778288660
C 	1.943113330	-0.778906540	-1.049131580
H 	0.374228300	-1.210329230	-2.500317370
H 	0.333185040	-2.252411920	-1.075077760
H 	1.583620070	-2.500285340	-2.315545880
H 	2.619108210	-0.278156250	-1.758630570
H 	2.606256020	-1.324128220	-0.360116990
O 	6.576880290	1.215216160	-3.303400990
H 	6.935601910	0.471657830	-2.786104700
C 	5.500798430	1.762040260	-2.634553200
C 	4.858256800	2.852798590	-3.241812130
C 	3.771252120	3.446414240	-2.600873400
C 	3.316816600	2.969830310	-1.364886950
C 	3.960769110	1.876722410	-0.760670390
C 	5.046852870	1.268918510	-1.403522380
H 	5.221285270	3.213879460	-4.200680710
H 	3.265978890	4.287651280	-3.070113370
H 	5.546340580	0.416094040	-0.942257420
H 	2.460158770	3.436077140	-0.885212720
Zn	-1.274140250	1.908104080	0.312831860
Cl	-3.052493280	1.051946460	1.157372360
Cl	-0.275874260	3.793825530	-0.130072120
