66

C 	-1.850373326	0.177517392	1.871279733
C 	-0.648193211	-0.376156141	1.647230615
C 	-0.186799564	-1.652597600	2.210919076
O 	0.924346859	-2.141737618	1.981394673
H 	-1.453741400	-0.733153651	-1.056400862
H 	-2.553766789	-0.346077754	2.520769028
H 	0.081834395	0.108935046	1.010950769
C 	-1.311159128	-3.497154241	-1.145681547
H 	-0.783734398	-4.445985587	-1.298384386
H 	-2.384622707	-3.718579312	-1.099701384
H 	-1.021209581	-3.093302646	-0.169087580
H 	2.430027345	-2.996437219	-2.915904881
H 	1.370802677	-4.159070942	-2.091990464
H 	1.093998613	-3.753704493	-3.798276753
H 	5.226663727	1.059494115	1.530614600
H 	4.285906594	-0.307447783	2.152557029
H 	5.128223599	-0.454984827	0.593621693
N 	2.471993156	-0.352568702	0.112973961
C 	1.836445211	-0.479998286	-1.092607217
N 	1.024790804	-1.585182999	-1.160637295
C 	3.335920410	0.771109054	0.497188793
H 	2.192954372	-0.998294689	0.854708221
C 	0.501422413	-2.165252597	-2.406179062
H 	1.071640168	-2.215380088	-0.363295594
H 	3.650845493	1.231254565	-0.443494646
C 	1.395803259	-3.346169309	-2.828454616
C 	4.570838746	0.231352854	1.240425160
H 	2.774384263	3.335628274	-0.212437123
H 	0.606045307	-1.371852750	-3.153182088
C 	2.585496079	1.825826408	1.308655497
C 	2.073258253	1.537590192	2.583654911
C 	1.403566951	2.515855337	3.322447917
C 	1.239997668	3.803221275	2.797324665
C 	1.740604140	4.098608605	1.525748675
C 	2.404354263	3.113644283	0.785742284
H 	2.190424824	0.540334236	3.002968043
H 	1.009566457	2.274600103	4.307601110
H 	0.719935796	4.566396130	3.372274792
H 	1.607003377	5.092920253	1.104664993
C 	-1.025685666	-2.490116863	-2.283186316
C 	-1.532177075	-3.074310958	-3.621498396
H 	-2.624241410	-3.173888256	-3.598327007
H 	-1.113007345	-4.066079396	-3.822558012
H 	-1.272830555	-2.416343323	-4.460621677
C 	-1.784463289	-1.175863747	-1.998554402
H 	-1.612257487	-0.442375749	-2.794781539
H 	-2.863120591	-1.365018327	-1.930286769
S 	2.011512753	0.625109013	-2.363642706
O 	-1.096169085	-2.277071376	3.010070743
C 	-0.674046212	-3.558338729	3.558060132
H 	0.219211973	-3.432311251	4.177094154
H 	-0.457303555	-4.263209552	2.749618285
H 	-1.518140166	-3.902237457	4.157466896
C 	-3.682532278	1.208030575	0.562731938
C 	-2.349302741	1.487915749	1.309061594
C 	-1.342688259	2.157004785	0.352991989
C 	-2.631358458	2.431072627	2.512639471
H 	-1.705245221	2.656623974	3.051417671
H 	-4.106804426	2.150224043	0.195074947
H 	-4.418658825	0.738452353	1.226973387
H 	-3.519797484	0.546693537	-0.294475868
H 	-1.759282579	3.099104481	-0.021563363
H 	-1.117862826	1.524453866	-0.511695056
H 	-0.402364496	2.388944275	0.858526103
H 	-3.059274405	3.374142754	2.151174802
H 	-3.343335323	1.979205284	3.214199457
