22

H 	-0.04284600	0.19509200	-0.29513800
C 	-0.04388300	-1.94468100	-0.21104500
C 	0.52862900	-0.72098200	-0.20185100
C 	1.96399000	-0.61378300	-0.05989300
O 	2.63155200	0.42798200	-0.02655000
H 	0.62213500	-2.80591500	-0.10982000
C 	-1.63747800	-3.20765200	-1.59761900
C 	-1.49920000	-2.30396400	-0.34328000
C 	-2.41892500	-1.07920900	-0.47651500
C 	-1.88852000	-3.12284100	0.91573700
H 	-1.79970200	-2.51848000	1.82328500
H 	-2.67392900	-3.54467300	-1.69814800
H 	-1.00086400	-4.09547400	-1.52807000
H 	-1.36703500	-2.66437500	-2.50775800
H 	-3.45927200	-1.40387500	-0.57051500
H 	-2.17674900	-0.48458500	-1.36177100
H 	-2.35376700	-0.42671600	0.39878000
H 	-2.92659100	-3.45951200	0.83219400
H 	-1.25655000	-4.00900800	1.03282400
H 	2.51198500	-1.57418600	0.02774300
Sn	2.18421500	2.90291600	-0.14387900
Cl	0.77983700	2.71794700	-2.13850100
