33

H 	1.302671000	2.493882000	-0.594503000
C 	0.589519000	0.480313000	-0.447602000
C 	0.441936000	1.855694000	-0.408450000
C 	-0.799453000	2.539142000	-0.270190000
O 	-0.885083000	3.787473000	-0.557273000
H 	-0.304529000	-0.111692000	-0.255248000
H 	1.187217560	1.095428490	-2.737222670
H 	0.526882560	-0.649813510	-2.625651670
H 	-0.630255440	0.815552490	-2.527911670
C 	0.376967560	0.417525490	-2.498596670
C 	-3.129851000	1.810127000	-0.943804000
C 	-2.081011000	1.885508000	0.191784000
H 	-3.310504000	2.804246000	-1.362669000
H 	-2.792250000	1.152578000	-1.752817000
H 	-4.074690000	1.415455000	-0.555865000
H 	-2.474523000	2.513999000	1.001627000
H 	-1.891335000	0.893903000	0.613866000
O 	0.776046000	-2.417572000	-0.758820000
H 	-0.000488000	-1.850640000	-0.905387000
C 	1.898350000	-1.647501000	-0.563898000
C 	3.114156000	-2.339077000	-0.502657000
C 	4.305295000	-1.636864000	-0.345550000
C 	4.297618000	-0.234491000	-0.248897000
C 	3.093455000	0.451911000	-0.300664000
C 	1.859172000	-0.229673000	-0.446533000
H 	3.100910000	-3.421919000	-0.593477000
H 	5.245951000	-2.181005000	-0.303866000
H 	3.093276000	1.533915000	-0.209052000
H 	5.228993000	0.311655000	-0.127546000
Al	0.289044000	4.752306000	-1.654584000
F 	-0.402446000	6.268265000	-1.808506000
F 	1.780913000	4.692475000	-0.858287000
F 	0.300350000	3.789278000	-3.046005000
