33

H 	1.418265780	2.297106320	-0.876637650
C 	3.244081940	1.196389740	-0.944260110
C 	1.885430820	1.315596010	-0.837594770
C 	0.975872590	0.217220590	-0.667511880
O 	-0.271361560	0.432568820	-0.503375170
H 	3.682532290	0.202470900	-0.867627200
H 	3.659199190	0.640456060	1.989096310
H 	5.444840770	0.469825810	2.534805980
H 	4.529205820	-1.015790790	1.852010520
C 	4.565924810	0.049334880	2.057358740
C 	1.301997030	-1.824745300	0.787848790
C 	1.404368870	-1.233168420	-0.640542450
H 	0.275750060	-1.751993040	1.160149190
H 	1.958744570	-1.291240850	1.483547770
H 	1.596776140	-2.879871770	0.774808870
H 	0.723400450	-1.777896290	-1.306938890
H 	2.417949260	-1.354878080	-1.033507630
O 	6.103452510	0.947590470	-0.452458090
H 	5.477451260	0.537907570	0.191094280
C 	5.570329180	2.092140360	-0.992328340
C 	6.478391140	3.090885330	-1.369611370
C 	6.011872030	4.293205460	-1.894602120
C 	4.631144200	4.523288270	-2.042788350
C 	3.728685000	3.533428580	-1.689122850
C 	4.168677530	2.280132960	-1.181207700
H 	7.539907380	2.911303450	-1.219529060
H 	6.724114690	5.066028920	-2.175974540
H 	2.665137820	3.697103570	-1.840553560
H 	4.273675040	5.467037620	-2.446183230
Al	-1.208470930	2.049110370	-0.232019520
F 	-2.818703590	1.613395210	-0.381264580
F 	-0.615610790	3.077578630	-1.440612820
F 	-0.678877250	2.498560300	1.303707620
