34

H 	1.441182850	1.198638170	1.911650140
C 	3.385167590	1.435630400	0.865766580
C 	1.993556100	0.887782670	1.025276650
C 	1.159844530	0.227434620	0.037466080
O 	-0.083143800	0.579518190	-0.051818860
H 	4.087744720	0.759910160	1.382200630
H 	4.494111970	3.203224380	1.519297990
H 	3.217475120	2.697488810	2.656033340
C 	3.475278590	2.810041290	1.597008580
H 	2.779282280	3.522629930	1.143156920
N 	1.611538500	-0.720524660	-0.808714660
C 	0.766108040	-1.196618780	-1.915923660
C 	2.895059270	-1.415663730	-0.649275990
H 	-0.060626730	-0.504281550	-2.068255470
H 	0.367826910	-2.194061820	-1.688297620
H 	1.382315840	-1.256530590	-2.820621610
H 	3.563821540	-1.173581160	-1.481794980
H 	2.709375990	-2.497072010	-0.641795120
H 	3.369159850	-1.137685500	0.290712720
C 	3.067534410	2.262291920	-1.530182220
C 	3.506326980	2.410616500	-2.848373370
C 	4.742972380	1.883433300	-3.242541140
C 	5.543678150	1.208244030	-2.314304190
C 	5.077097220	1.072529950	-1.009782670
C 	3.846050230	1.576558370	-0.579285760
H 	2.112250170	2.686283040	-1.223256010
H 	2.885496070	2.943741130	-3.564948930
H 	5.090420270	2.001192230	-4.266765300
H 	6.510450230	0.791926690	-2.585713900
F 	5.867254620	0.380670350	-0.108296980
Al	-0.827999550	2.172069850	0.561156630
F 	-0.730206950	2.094827290	2.246184790
F 	-2.369709220	2.187320840	-0.097015400
F 	0.241896320	3.329848710	-0.074585630
