29

H 	2.108299079	-0.313394966	-0.040542990
C 	0.000000000	0.000000000	0.000000000
C 	1.124382132	-0.769767866	0.000000000
C 	1.172113912	-2.208736790	0.000000000
O 	2.166908461	-2.908045519	-0.098651735
H 	-0.962898428	-0.495357919	0.106938681
H 	0.210912934	0.382793545	-2.868247533
H 	-1.573651838	-0.027118390	-2.485714631
H 	-0.285947965	-1.376082948	-2.507868735
C 	-0.531393045	-0.321966141	-2.514275799
Cl	-0.437199414	-3.075626245	0.151229751
C 	-0.087824198	1.690427006	1.764202012
C 	-0.001933552	1.501379415	0.215079120
C 	-1.251342649	2.151264628	-0.423921527
C 	1.275582175	2.187986310	-0.312781675
H 	1.408224764	2.006620664	-1.385128544
H 	-0.129331657	2.761357082	1.996357236
H 	0.787253848	1.256521231	2.258914726
H 	-0.987194569	1.215819597	2.173617188
H 	-1.331547671	3.196554329	-0.104605103
H 	-2.167887376	1.632317584	-0.118001957
H 	-1.194999547	2.135421688	-1.516221584
H 	1.204327079	3.270255548	-0.156632223
H 	2.173983605	1.838917191	0.207243487
Sn	4.592197287	-2.354447961	-1.100359836
Cl	4.647828323	-4.679821910	-0.821495202
Cl	4.654488978	-1.034218417	0.859812055
Cl	6.729174210	-1.902140635	-2.022266311
Cl	3.180193911	-1.507262195	-2.798461870
