36

H 	2.034037386	-0.928898869	0.034823947
C 	0.154750260	-0.027021432	-0.344133271
C 	1.480744787	0.003511056	-0.036504291
C 	2.256244094	1.209240960	0.155052140
O 	3.505834060	1.156958549	0.288378787
H 	-0.418176553	0.896709904	-0.390050149
H 	1.003947848	-0.449982197	-3.068256742
H 	-0.636175396	0.443633440	-3.193500132
H 	0.934153803	1.390971891	-2.810418863
C 	0.414530805	0.448125896	-2.932573485
C 	2.585537398	3.741781098	0.328258274
C 	1.596051054	2.577174033	0.205438186
H 	3.185860065	3.653350291	1.238687929
H 	3.277249864	3.761033417	-0.519898379
H 	2.042508973	4.692553624	0.357966846
H 	0.888846247	2.574332322	1.048287722
H 	0.975516266	2.686695434	-0.695994573
C 	-0.643181667	-1.306182536	-0.389180831
C 	-1.818831694	-1.295136549	-1.348689146
C 	-2.894026081	-0.414245397	-1.153121549
C 	-3.960261930	-0.377792105	-2.056067083
C 	-3.968760606	-1.230388880	-3.166484622
C 	-2.908296654	-2.120748124	-3.362217630
C 	-1.841333826	-2.151431271	-2.457830516
H 	-1.024137521	-1.467430584	0.634774370
H 	0.021872482	-2.150621988	-0.603017475
H 	-2.901885897	0.245947701	-0.286589482
H 	-4.786455739	0.310418812	-1.890667326
H 	-4.798104394	-1.203827090	-3.869589015
H 	-2.908518008	-2.789878354	-4.219919259
H 	-1.014158079	-2.840169195	-2.620177618
Ti	5.137111213	-0.245538733	0.139384935
Cl	6.753382088	-1.792167559	-0.053715582
Cl	4.300591353	-0.595695354	-1.939063164
Cl	4.190655753	-1.173897173	1.967916581
Cl	6.461415285	1.522451271	0.450213788
