36

H 	2.024981007	-0.782068052	-0.341257096
C 	0.088310972	0.140791717	-0.540769099
C 	1.521878223	0.175510575	-0.456696510
C 	2.330899887	1.321006032	-0.085884580
O 	3.600372605	1.196316516	0.001981337
H 	-0.463785502	1.077273837	-0.549813217
H 	2.147667553	-0.069209298	-2.511845109
H 	0.403616481	-0.433444662	-2.704712241
H 	0.950546217	1.288187641	-2.527301461
C 	1.130452559	0.250323716	-2.261987774
C 	2.703435683	3.746616673	0.604338837
C 	1.700554078	2.673186700	0.161967924
H 	3.213820299	3.446283457	1.524690122
H 	3.471986511	3.902018214	-0.158917432
H 	2.187036883	4.695957755	0.782241897
H 	0.908431780	2.542984966	0.919652997
H 	1.172439250	3.001219899	-0.749855788
C 	-0.699192970	-1.132191042	-0.425955779
C 	-1.881961353	-1.208546771	-1.379268299
C 	-3.004653466	-0.386826548	-1.194346795
C 	-4.071627964	-0.426784957	-2.096043341
C 	-4.030395333	-1.293657407	-3.194677012
C 	-2.921108054	-2.123529764	-3.381053455
C 	-1.851768302	-2.078320758	-2.478690966
H 	-1.058289598	-1.189832617	0.616881774
H 	-0.034331035	-1.993206061	-0.564263338
H 	-3.049860955	0.283149565	-0.336540111
H 	-4.937991826	0.211601020	-1.937578522
H 	-4.863055326	-1.329347495	-3.893321862
H 	-2.885047489	-2.806429909	-4.226893930
H 	-0.993839045	-2.732807863	-2.625129440
Ti	5.129300976	-0.159783163	0.000675024
Cl	6.702502258	-1.786372737	-0.088035569
Cl	4.618466922	-0.415073670	-2.238972183
Cl	3.895944788	-1.255165565	1.585786603
Cl	6.500414238	1.488026247	0.657643095
