30

H 	1.988675993	0.958168316	0.171561085
C 	0.000000000	0.000000000	0.000000000
C 	1.499484631	0.000000000	0.000000000
C 	2.358193586	-1.146988415	0.000000000
O 	3.542716911	-1.056901130	0.429444237
H 	-0.378200037	-0.991437983	-0.272412744
H 	-1.685158897	1.086064139	-0.860511730
H 	-0.359506311	0.767601200	-2.006047883
C 	-0.596069875	1.039621872	-0.971512632
H 	-0.188532678	2.040188094	-0.790695313
C 	2.955255990	-3.504647574	-0.810422020
C 	1.842831078	-2.495062713	-0.502759381
H 	3.574343666	-3.685251310	0.073059924
H 	3.612880942	-3.132263360	-1.603929413
H 	2.522510285	-4.456112965	-1.138651220
H 	1.179690576	-2.893258278	0.282477602
H 	1.201730684	-2.333532573	-1.380025422
C 	-0.536297679	-0.866146017	2.331292045
C 	-0.726144781	-0.682610786	3.703302617
C 	-0.733047455	0.602508019	4.254079891
C 	-0.559303573	1.681792222	3.392348343
C 	-0.363976115	1.528815707	2.025212386
C 	-0.353275412	0.235560114	1.479650979
H 	-0.519176493	-1.872364476	1.918747069
H 	-0.860929866	-1.544546905	4.352336617
H 	-0.859539284	0.773267755	5.318804040
F 	-0.569179550	2.947985847	3.911890478
H 	-0.207827148	2.412480770	1.414386863
I 	3.491295339	0.415708502	2.744134010
I 	3.181298451	1.673498690	5.205582392
