30

H 	1.566040753	1.832677147	0.719130362
C 	3.643469299	1.138322124	0.395844620
C 	2.153593640	0.969340165	0.408874373
C 	1.409291723	-0.129779324	-0.130490530
O 	0.197471798	0.018530892	-0.454728297
H 	4.130085252	0.185713223	0.159339985
H 	5.267476557	1.870425555	1.655368836
H 	4.050800994	0.901040369	2.521982611
C 	4.196582822	1.654617769	1.740260465
H 	3.685567654	2.568584990	2.061883926
C 	1.089605755	-2.640637498	-0.536958470
C 	2.080178012	-1.487517971	-0.335739597
H 	0.437457929	-2.450461556	-1.394258844
H 	0.449495921	-2.764548018	0.343779939
H 	1.630045198	-3.578561488	-0.705817706
H 	2.728725932	-1.389453151	-1.221561836
H 	2.755627332	-1.688942254	0.506812407
C 	4.115613697	1.544235242	-2.070947007
C 	4.202685874	2.374802805	-3.191088102
C 	4.053751026	3.759086920	-3.062598815
C 	3.831486235	4.275202580	-1.789081805
C 	3.735768420	3.473027617	-0.658608990
C 	3.881382310	2.083671209	-0.795529213
H 	4.219438039	0.467895367	-2.187887419
H 	4.378647423	1.943658147	-4.173685599
H 	4.097929813	4.426043847	-3.918176559
F 	3.689217893	5.628512972	-1.642185370
H 	3.534173818	3.938821182	0.300948323
I 	-0.033194891	2.405780403	-1.787711680
I 	0.004454142	4.703837474	-3.354357338
