5
Cl4Ti optimized with ADF in AMS.
Ti       3.41931020023668      -0.06006351581952      -0.05783738647294
Cl       1.23629946115017       0.00107939478129       0.00125819345321
Cl       4.13934123427040      -1.64240135071026       1.26521044622622
Cl       4.22072786824147       1.86194034320268       0.60279902543299
Cl       4.08105589610128      -0.46051811145419      -2.10096843863949
