30

H 	2.020489492	0.951162343	0.089972590
C 	0.000000000	0.000000000	0.000000000
C 	1.498194251	0.000000000	0.000000000
C 	2.329265451	-1.166974679	-0.000000000
O 	3.560595812	-1.081035547	0.273000330
H 	-0.354138316	-0.709103183	-0.764435013
H 	-1.666607589	1.371671540	-0.334129585
H 	-0.222664877	1.738554766	-1.309110872
C 	-0.571858977	1.396976594	-0.327325064
H 	-0.253614790	2.127234962	0.425798653
C 	2.750844485	-3.673891341	-0.353992374
C 	1.731068906	-2.531145208	-0.329405978
H 	3.248524728	-3.775434542	0.615722744
H 	3.528020308	-3.494384182	-1.104345588
H 	2.251024452	-4.619764892	-0.590554463
H 	0.944813029	-2.726895963	0.415221524
H 	1.205776774	-2.452710328	-1.293325288
C 	0.026340636	-0.046972039	2.554825047
C 	-0.450086798	-0.502862182	3.786012158
C 	-1.478804183	-1.440894754	3.793864246
C 	-2.041703186	-1.936878498	2.620949223
C 	-1.548415829	-1.471089906	1.398173297
C 	-0.518680244	-0.520772140	1.348763483
H 	0.840312537	0.673802275	2.538956563
H 	-0.032370125	-0.146189835	4.723482692
F 	-1.951832987	-1.895751579	4.995979327
H 	-2.841898670	-2.670363650	2.671453686
H 	-1.974248462	-1.853113535	0.472087125
I 	4.253231474	0.790939565	2.048237722
I 	4.931668100	2.570453464	4.092883848
