25

H 	2.471949010	0.702477520	0.440569380
C 	4.264365610	-0.127182380	-0.333113170
C 	2.945293870	-0.146580830	-0.037533730
C 	2.014718480	-1.241648560	-0.323345190
O 	0.776750340	-1.138755090	-0.090904170
H 	4.721469050	-0.992063470	-0.819945970
C 	7.082882480	3.008683070	0.385164550
C 	5.729549820	3.213058960	0.694684390
C 	4.795429820	2.205376440	0.468389060
C 	5.198126730	0.964537710	-0.076829550
C 	6.563013810	0.776819400	-0.388330510
C 	7.497418400	1.787423850	-0.157379630
H 	5.405446500	4.164225360	1.111380870
H 	3.750266260	2.383541440	0.706551850
H 	6.885864540	-0.172892290	-0.812547790
H 	8.545087360	1.624676390	-0.400784150
H 	7.807303240	3.800426850	0.563735670
N 	2.459581850	-2.408213970	-0.854018190
H 	1.783033080	-3.141205890	-1.033474800
H 	3.436801280	-2.585392160	-1.040302590
Ti	-0.620464960	0.263844730	0.764521840
Cl	-2.038511640	1.743449010	1.686846350
Cl	0.620027000	0.005900780	2.637257900
Cl	0.111442290	1.676796400	-0.845458890
Cl	-2.165022250	-1.265178880	0.234391190
