25

H 	2.564721398	0.515672809	0.835503457
C 	4.229927227	-0.114624681	-0.329288969
C 	2.982620936	-0.236816526	0.176538066
C 	2.047734076	-1.317463564	-0.146430247
O 	0.801317200	-1.193083269	0.007781745
H 	4.586517922	-0.861520614	-1.041610582
C 	7.064287864	3.010534905	0.369091362
C 	5.822959749	3.046088082	1.021484527
C 	4.887055417	2.038090369	0.808924462
C 	5.174061114	0.966047713	-0.065885827
C 	6.427129513	0.945382523	-0.715387123
C 	7.364142377	1.956277592	-0.499820494
H 	5.587584627	3.865919141	1.696164738
H 	3.929246762	2.083548468	1.319726206
H 	6.659878541	0.126901346	-1.394554648
H 	8.324344892	1.924071634	-1.009448038
H 	7.790778967	3.802059674	0.538190870
N 	2.515186253	-2.494897816	-0.631497351
H 	1.844218357	-3.225537572	-0.839372234
H 	3.499253911	-2.723686084	-0.615876070
Ti	-0.611526473	0.358220304	0.517851541
Cl	-2.045777573	1.997349022	1.069698817
Cl	0.376695009	0.283506975	2.552477130
Cl	0.378442401	1.520397453	-1.145572538
Cl	-2.158978498	-1.170313492	0.000835921
