25

H 	1.901527740	0.919275311	0.230251950
C 	0.000000000	0.000000000	0.000000000
C 	1.364527775	-0.000000000	0.000000000
C 	2.198513419	-1.180753982	-0.000000000
O 	3.289493121	-1.186415856	0.690823393
H 	-0.564274462	-0.926830839	-0.090870443
C 	-2.199817713	1.045646589	0.468645718
H 	-2.706953351	1.934332317	0.080572354
H 	-2.363933064	0.987446840	1.554223354
H 	-2.645503349	0.163099769	-0.001289857
N 	-0.777513406	1.105141536	0.128827939
H 	-0.297621713	1.977459606	0.334151735
N 	1.902291046	-2.311032336	-0.691133845
C 	2.690492683	-3.535259233	-0.475020386
C 	0.952627324	-2.366610431	-1.807109890
H 	3.214405506	-3.469995101	0.477237768
H 	3.426939250	-3.665192063	-1.279402077
H 	2.011633121	-4.395549018	-0.472448997
H 	0.036861859	-2.905874106	-1.529584189
H 	1.423378255	-2.900315998	-2.641698914
H 	0.696492443	-1.357787068	-2.131752244
Al	3.738929912	-0.091013264	2.119834105
F 	2.509840645	-0.363313560	3.246178540
F 	3.689114907	1.488157239	1.503309982
F 	5.264078293	-0.622294094	2.577534553
