25

H 	2.226076040	0.393480270	1.002320660
C 	4.113907170	-0.460600910	0.525537000
C 	2.754378660	-0.489945190	0.644743150
C 	1.887140600	-1.498150450	0.076676050
O 	0.743779610	-1.146860210	-0.413382760
H 	4.655840970	-1.270589930	0.038404850
C 	6.283630680	0.746739490	0.484544040
H 	6.855806470	1.291782640	1.241865170
H 	6.320799330	1.305840220	-0.461801080
H 	6.754244830	-0.230463260	0.333927620
N 	4.909575950	0.554051100	0.954121260
H 	4.436544420	1.379871650	1.312987240
N 	2.206101990	-2.817563810	0.021187890
C 	1.369812710	-3.751761100	-0.753039780
C 	3.249739490	-3.447265640	0.840626640
H 	0.756259330	-3.194464990	-1.459453150
H 	0.714984010	-4.325160590	-0.082927020
H 	2.025109130	-4.447713720	-1.290189790
H 	4.119966960	-3.731314430	0.232717620
H 	2.837793930	-4.357585770	1.293709790
H 	3.565811530	-2.768209190	1.633288070
Al	0.219161450	0.552375410	-0.959410710
F 	1.348010790	0.966051300	-2.147914350
F 	0.365366820	1.530760930	0.421271040
F 	-1.354736180	0.332155210	-1.505200440
