27

H 	  1.989598	  0.958985	  0.128612
C 	  0.000000	  0.000000	  0.000000
C 	  1.487962	 -0.000000	  0.000000
C 	  2.372517	 -1.106653	 -0.000000
O 	  3.586676	 -1.076038	  0.222794
H 	 -0.372401	 -0.980350	 -0.311315
H 	 -1.694242	  1.110474	 -0.785792
H 	 -0.376729	  0.867701	 -1.958264
C 	 -0.606198	  1.085517	 -0.909499
H 	 -0.210467	  2.080052	 -0.678717
I 	  1.530020	 -3.091851	 -0.500838
C 	 -0.766119	  0.404003	  4.262990
C 	 -0.451817	  1.537404	  3.503209
C 	 -0.216626	  1.419473	  2.133197
C 	 -0.310267	  0.166624	  1.500987
C 	 -0.605988	 -0.969877	  2.274767
C 	 -0.845727	 -0.849703	  3.643827
H 	 -0.379709	  2.511421	  3.981281
H 	  0.040240	  2.304332	  1.557035
H 	 -0.645565	 -1.946408	  1.798286
H 	 -1.086149	 -1.733714	  4.229935
H 	 -0.938687	  0.495798	  5.332702
Ti	  5.031447	  0.400961	  1.202376
Cl	  6.416396	  1.864059	  2.156148
Cl	  6.415236	 -1.334126	  1.106321
Cl	  4.639750	  1.578992	 -0.672317
Cl	  3.455799	  0.429965	  2.801250
