27

H 	0.25549900	-1.42923000	0.32987700
C 	-1.17172600	0.03639800	1.16444000
C 	-0.35356300	-0.58305700	0.00070600
C 	0.53618200	0.41558900	-0.70257800
O 	1.72525900	0.28408000	-0.89575100
H 	-1.64350500	0.94613800	0.77067800
H 	-1.05888900	-0.94849200	-0.76058900
H 	0.26254600	-0.39198800	2.76926400
C 	-0.26945500	0.46173600	2.33842100
H 	0.48179200	1.19036700	2.01700700
H 	-0.86553100	0.92016300	3.13301900
C 	-4.44418000	-2.53186700	2.42688900
C 	-4.69655200	-1.26559000	1.90116300
C 	-3.63716400	-0.45128100	1.49700700
C 	-2.30700800	-0.87804100	1.60703300
C 	-2.07025500	-2.15448700	2.13928100
C 	-3.12486200	-2.97229000	2.54356600
H 	-5.71912100	-0.90727200	1.80463900
H 	-3.85077600	0.53516000	1.08937800
H 	-1.05309800	-2.52317700	2.24421300
H 	-2.91417700	-3.95809300	2.95250800
H 	-5.26594700	-3.16994600	2.74313800
H 	0.00607000	1.33151800	-1.06978800
Ti	6.98268800	-2.08606800	-3.42563200
Cl	5.16134200	-1.18933200	-2.63655900
Cl	6.67213200	-2.64769100	-5.51611300
Cl	7.48307900	-3.86759200	-2.26018300
