32

H 	1.554091900	2.031131190	-0.114189390
C 	3.381452290	0.995186020	-0.395208380
C 	2.021852000	1.053968690	-0.187684670
C 	1.004488880	-0.008758100	-0.222133140
O 	-0.185723540	0.313934330	-0.505337760
H 	3.844691650	0.034958870	-0.609956540
H 	4.430798490	2.089450440	1.835377810
H 	5.169486170	0.404860490	1.604721260
H 	3.500339750	0.592881230	2.403125890
C 	4.291515130	1.015782020	1.793039100
N 	1.297898610	-1.338061610	-0.027349010
C 	0.245865030	-2.334016780	-0.276576870
C 	2.496055600	-1.860539070	0.634768260
H 	-0.484337460	-1.925397050	-0.975027670
H 	-0.270319170	-2.602896280	0.656981790
H 	0.707973060	-3.235667670	-0.695894210
H 	3.133734450	-2.412339620	-0.071435880
H 	2.190937030	-2.553857860	1.430044180
H 	3.070582810	-1.056885310	1.086955170
C 	5.513036880	1.929934750	-1.269387430
C 	6.319412330	2.988183040	-1.695493490
C 	5.832642180	4.299614350	-1.687323150
C 	4.524410360	4.508097480	-1.248483850
C 	3.697644820	3.475620390	-0.824406280
C 	4.194518270	2.156583790	-0.827159650
H 	5.904564040	0.914381890	-1.277392510
H 	7.333701570	2.793326880	-2.037212080
H 	6.438153000	5.140749370	-2.013713820
F 	4.031576610	5.788343010	-1.239425730
H 	2.684448040	3.710408180	-0.512538000
I 	-1.005061980	2.805857110	-1.115120850
I 	-1.881593690	5.386366450	-1.727316910
