30

H 	1.571766020	1.830394570	-1.366105050
C 	3.484262210	0.884838720	-1.357778610
C 	2.154542090	0.983359270	-1.022924040
C 	1.464306260	0.050419510	-0.174035810
O 	0.289096530	0.263918400	0.248017390
H 	4.035475510	-0.005846520	-1.062078920
H 	4.012163380	2.854505070	0.521167030
H 	5.538852830	1.784482090	0.381846430
H 	4.094610310	1.237123850	1.435693960
C 	4.505429890	1.904545540	0.686383130
C 	2.121791410	-1.240443380	0.274930700
H 	2.962170890	-1.017317970	0.946982770
H 	2.518468260	-1.804787070	-0.577106200
H 	1.391482350	-1.847756590	0.813671310
C 	5.518101330	1.442570180	-2.659238360
C 	6.228020430	2.242268590	-3.555515200
C 	5.632692510	3.378545300	-4.115409000
C 	4.316701110	3.677846140	-3.758048140
C 	3.585503050	2.903387100	-2.867736330
C 	4.189314350	1.759113950	-2.301294880
H 	5.991436090	0.564248700	-2.224649450
H 	7.251237410	1.986163700	-3.820228060
H 	6.163870750	4.020028800	-4.813326240
F 	3.724866780	4.783616780	-4.307815600
H 	2.566381430	3.192629950	-2.630485640
Sn	-1.044859110	2.203105440	0.274383480
Cl	-1.047504180	1.971117580	-2.105473720
Cl	0.898168440	3.175837560	1.289810420
Cl	-2.407339880	4.171326930	0.368565310
Cl	-2.413692040	0.773286480	1.566696900
