30

H 	1.584333637	1.827995057	-1.361847343
C 	3.500845242	0.895112670	-1.325889376
C 	2.168780309	0.989676995	-1.002079045
C 	1.475788552	0.051866630	-0.163338423
O 	0.289881348	0.249257584	0.233247421
H 	4.050441462	0.004240729	-1.030152661
H 	4.027759849	2.900564029	0.516618699
H 	5.541621230	1.812441390	0.395036864
H 	4.095487325	1.302761812	1.464824559
C 	4.511013707	1.949378867	0.700748230
C 	2.139444607	-1.228222177	0.301755133
H 	2.969100686	-0.993408078	0.982128207
H 	2.550938099	-1.793271150	-0.542167362
H 	1.407753884	-1.838572606	0.834245689
C 	5.476195306	1.379091215	-2.739384127
C 	6.170180725	2.165977954	-3.659355127
C 	5.614703727	3.360516872	-4.128622689
C 	4.356065398	3.732733755	-3.654488201
C 	3.638550223	2.969930139	-2.745642334
C 	4.201124249	1.764858681	-2.274658194
H 	5.916847777	0.453323649	-2.376078992
H 	7.149471856	1.853621756	-4.013264982
H 	6.133868548	3.996332644	-4.840222354
F 	3.809614440	4.901368515	-4.103870307
H 	2.666974081	3.320746091	-2.411858700
Sn	-1.067566673	2.163419698	0.205733204
Cl	-1.045227751	1.880991493	-2.165074181
Cl	0.846738757	3.195309337	1.216344025
Cl	-2.464985962	4.108238526	0.247478922
Cl	-2.418428227	0.746246594	1.528733024
