24

H 	2.359991250	0.762381172	0.473601717
C 	4.197333139	-0.270830669	0.627935369
C 	2.857567451	-0.204421425	0.421576716
C 	2.032662619	-1.362165457	0.166300010
O 	0.803981629	-1.246099815	-0.077811888
H 	4.750104651	-1.212239899	0.606494526
O 	4.919823150	0.831048006	0.869568042
C 	6.363799707	0.639320859	1.069412387
C 	6.977560426	1.998610458	1.350666809
H 	6.777083176	0.186559598	0.158543638
H 	6.503073697	-0.051878738	1.911014299
H 	6.814795256	2.680221538	0.509058917
H 	8.057321774	1.885683433	1.503580303
H 	6.542593098	2.442439180	2.252399786
C 	1.607829692	-3.870872423	-0.176541350
C 	2.615282673	-2.774442692	0.190540695
H 	1.202851379	-3.713013576	-1.180974463
H 	0.764828787	-3.880903243	0.521064486
H 	2.096740210	-4.850800263	-0.146341443
H 	3.474490913	-2.801731343	-0.494769452
H 	3.025771762	-2.949603844	1.195811213
Zn	-0.423602202	0.423626281	-0.331055499
Cl	-1.492922498	0.079568850	-2.161894666
Cl	-0.080227461	1.785620973	1.313549518
