30

H 	0.310429310	-2.910409086	0.445855199
C 	-2.499221279	0.001316777	1.468979694
C 	-1.090603266	-1.691235544	-0.459237539
C 	0.203660419	-0.206371516	-2.525548225
O 	2.381919323	-0.461740538	-3.187402660
H 	-3.528987961	1.431227901	0.365952684
H 	-2.439478081	-2.911800810	-1.457523461
H 	0.555180386	0.156866372	4.280635383
C 	-0.546172766	1.432459817	3.081929494
H 	0.802872325	2.426713545	1.869787606
H 	-1.423391672	2.852379375	4.294022431
C 	-6.673000156	-2.415206727	1.208506511
C 	-4.607659856	-1.425831221	3.019845011
C 	-5.897622738	0.437868686	4.862067637
C 	-3.541211978	-3.667624642	4.548082793
H 	-2.099566637	-3.069269495	5.902629066
H 	-8.242425687	-3.222207769	2.287736701
H 	-5.990328470	-3.904175686	-0.050904190
H 	-7.444585486	-0.893081554	0.035835017
H 	-7.524655966	-0.465415854	5.765371206
H 	-6.590748591	2.122071468	3.876872933
H 	-4.631852994	1.057855427	6.370553799
H 	-5.053281569	-4.578025446	5.628507753
H 	-2.707213258	-5.113531573	3.328857599
H 	-1.040905424	1.202272339	-3.499645171
Sn	12.096512245	-2.593677272	-2.427301264
Cl	9.670632747	-3.749930321	1.032529119
Cl	13.486254300	1.533154715	-1.920692493
Cl	9.784056006	-2.938828942	-6.121765243
Cl	15.577247039	-5.255842995	-2.657997882
