25

H 	-1.658032234	-1.331869792	-0.061764822
C 	0.000000000	0.000000000	0.000000000
C 	-1.316900588	-0.304794569	0.000000000
C 	-2.407177310	0.672220618	-0.000000000
O 	-3.563289565	0.384792079	-0.417294860
H 	0.299555724	1.049882523	-0.013505658
C 	2.429084488	-0.442514667	-0.084290747
C 	3.530649317	-1.296077245	-0.123383047
C 	3.299627045	-2.668943224	-0.120710510
C 	2.013250575	-3.210977489	-0.082491156
C 	0.925262175	-2.345995853	-0.043817818
C 	1.109831300	-0.943914890	-0.041790774
H 	2.589650542	0.633688856	-0.089033899
H 	4.548092749	-0.917232334	-0.157069550
F 	4.367712182	-3.516675027	-0.158584261
H 	1.882505916	-4.289419454	-0.085583914
H 	-0.075990021	-2.765824757	-0.017398279
N 	-2.189379715	1.929685949	0.459095880
H 	-2.964886304	2.582344923	0.449756869
H 	-1.350343609	2.172911117	0.966822247
Ti	-4.533057341	-1.239727316	-1.459910790
Cl	-5.505798270	-2.952901067	-2.537029359
Cl	-4.153602663	-2.407031452	0.442788852
Cl	-6.282390190	0.147822630	-1.554535815
Cl	-2.858460285	-1.000496621	-2.954552493
