28

H 	2.365485480	0.734410140	0.538826970
C 	4.219651350	-0.144697560	-0.046708040
C 	2.887367650	-0.164951960	0.228958050
C 	2.075897200	-1.363720430	0.147460040
O 	0.847058090	-1.361422380	0.453210520
H 	4.705559660	-1.075454190	-0.341240630
C 	4.673519910	2.312141720	0.324493970
C 	5.569389110	3.375910610	0.364160600
C 	6.918153530	3.130507210	0.088705860
C 	7.396222930	1.858895360	-0.224203100
C 	6.486086020	0.804063150	-0.263773950
C 	5.111690560	1.002190330	0.010010790
H 	3.624454100	2.499606380	0.536608310
H 	5.242476730	4.384655250	0.601776400
F 	7.798577610	4.174019710	0.126473500
H 	8.452829160	1.711979220	-0.430865410
H 	6.840234150	-0.195815210	-0.507899210
C 	1.641072960	-3.838381220	-0.402760730
C 	2.657517220	-2.691747890	-0.312979320
H 	0.846429900	-3.606026820	-1.119179840
H 	1.168832410	-4.026998170	0.566254280
H 	2.147409160	-4.753782360	-0.729317050
H 	3.140224740	-2.528723160	-1.287349430
H 	3.471086640	-2.954647980	0.380067920
B 	-0.061830520	-0.053646870	1.014160280
F 	0.007247120	0.884076420	-0.007746740
F 	0.579904610	0.347647010	2.177611660
F 	-1.294025750	-0.620393630	1.196879580
