28

H 	2.400461564	0.708528858	0.554016228
C 	4.240638714	-0.168149512	-0.057789431
C 	2.912994062	-0.191230189	0.233764467
C 	2.089103180	-1.377595891	0.147153699
O 	0.856474479	-1.349254384	0.431871851
H 	4.725909833	-1.090591361	-0.377030058
C 	4.670123967	2.273361141	0.396022230
C 	5.546518468	3.350567153	0.443641865
C 	6.884933286	3.141780295	0.101779120
C 	7.373134898	1.895377284	-0.284227629
C 	6.482452039	0.825312190	-0.327717685
C 	5.118672118	0.986905319	0.009196552
H 	3.628863700	2.431586917	0.660528703
H 	5.214212876	4.342020468	0.738094036
F 	7.744292604	4.198165015	0.148537825
H 	8.422297797	1.779470042	-0.540597693
H 	6.843055289	-0.156712480	-0.626688493
C 	1.621156959	-3.847987651	-0.365406474
C 	2.656359341	-2.719554195	-0.281521981
H 	0.835794665	-3.609154198	-1.089187623
H 	1.138848946	-4.014211422	0.602423556
H 	2.111144868	-4.777046808	-0.676123673
H 	3.155167351	-2.580565654	-1.251097829
H 	3.455576496	-2.982083887	0.427403064
B 	-0.026561336	-0.006068913	0.941856179
F 	0.102288186	0.909736018	-0.091132030
F 	0.594452269	0.393799965	2.114797008
F 	-1.279844888	-0.526711438	1.099069496
