31

H 	1.478136860	1.733568970	1.302629980
C 	3.559748190	1.316320620	0.594771990
C 	2.084687830	1.063547980	0.695366500
C 	1.374701900	0.039872060	-0.013487170
O 	0.110819370	0.040830350	-0.055269860
H 	4.055484130	0.338681600	0.742423490
H 	5.135201410	2.440444380	1.621791600
H 	3.825310490	1.887437770	2.695581750
C 	4.053615960	2.282371600	1.697957110
H 	3.563448840	3.256152420	1.586984390
C 	1.262603420	-2.128940020	-1.383779460
C 	2.149353230	-1.065202540	-0.727327460
H 	0.598421300	-1.678954880	-2.128946130
H 	0.632471550	-2.630865290	-0.641272430
H 	1.884615170	-2.883006660	-1.879421310
H 	2.792404490	-0.575359310	-1.474979160
H 	2.840077830	-1.525121350	-0.003497010
O 	6.071549910	0.615601790	-0.854985780
H 	5.759099360	0.332826340	0.022100510
C 	5.143286600	1.469008790	-1.428914300
C 	5.472920740	1.977265740	-2.693068260
C 	4.602008990	2.851297020	-3.344857480
C 	3.395749670	3.225817940	-2.739776830
C 	3.072326150	2.714700640	-1.482420150
C 	3.930842580	1.829932980	-0.805082320
H 	6.416787360	1.678256270	-3.143276900
H 	4.868819910	3.241384130	-4.324909340
H 	2.131587760	2.998481100	-1.014476580
H 	2.713403670	3.907794360	-3.240980420
I 	-1.110687790	2.419145740	0.000881420
I 	-2.376425070	4.900811710	-0.190380680
