34

H 	1.623153934	2.009343642	0.496555420
C 	3.386135641	1.051234258	-0.170668076
C 	2.068148586	1.066689251	0.192842227
C 	1.035845073	0.030451881	0.008627467
O 	-0.148503878	0.416012071	-0.220024791
H 	3.806358686	0.132973536	-0.580975113
H 	4.680749454	1.661067847	2.265372964
H 	5.174321202	-0.050068077	1.739349028
H 	3.544488119	0.242782350	2.588935024
C 	4.395483558	0.639796971	2.047611909
N 	1.303485864	-1.312649811	0.002331209
C 	0.240865412	-2.246882083	-0.392683734
C 	2.510870472	-1.940687341	0.538898921
H 	-0.501538428	-1.718970040	-0.990521679
H 	-0.254301421	-2.674421481	0.490946773
H 	0.686937511	-3.062134851	-0.974448921
H 	3.084470037	-2.431073929	-0.260410378
H 	2.225868986	-2.706098259	1.273239842
H 	3.139096295	-1.205609593	1.032268806
C 	5.673807499	2.100920322	-0.525452926
C 	4.144411596	2.307663391	-0.608729613
C 	3.731324331	3.574718614	0.167974516
C 	3.763861320	2.499018456	-2.111443171
H 	2.688448528	2.667662006	-2.221762332
H 	6.189158761	2.927460873	-1.028162628
H 	5.971771786	1.168803244	-1.022709113
H 	6.028614574	2.063751313	0.508197831
H 	4.318495369	4.429670516	-0.186299509
H 	3.907696275	3.465837882	1.243619087
H 	2.675093209	3.817636539	0.014276993
H 	4.300489857	3.364312248	-2.519117087
H 	4.039252755	1.618130089	-2.704406120
I 	-0.526452534	2.763512159	-1.418896973
I 	-0.894243498	5.194981346	-2.762978015
