29

H 	  1.925537	  0.933888	 -0.033456
C 	  0.000000	  0.000000	  0.000000
C 	  1.377313	  0.000000	  0.000000
C 	  2.166927	 -1.193885	  0.000000
O 	  3.437848	 -1.171499	 -0.100851
H 	 -0.522946	 -0.947969	  0.110100
H 	 -0.009771	  0.698196	 -2.682342
H 	 -1.509509	 -0.357466	 -2.342507
H 	  0.154863	 -1.155266	 -2.634337
C 	 -0.433717	 -0.267166	 -2.435232
C 	  1.544515	 -2.565853	  0.114078
H 	  0.897065	 -2.764193	 -0.750075
H 	  0.924830	 -2.644157	  1.014830
H 	  2.335189	 -3.317574	  0.147304
C 	 -2.549308	  3.411217	  0.432673
C 	 -3.072991	  2.114918	  0.503726
C 	 -2.228654	  1.015715	  0.354571
C 	 -0.844939	  1.187498	  0.135305
C 	 -0.331820	  2.500802	  0.064603
C 	 -1.177623	  3.597810	  0.211617
H 	 -4.136548	  1.963542	  0.673064
H 	 -2.636251	  0.007465	  0.406725
H 	  0.728493	  2.664259	 -0.106321
H 	 -0.767742	  4.603635	  0.158590
H 	 -3.204810	  4.271535	  0.546386
B 	  4.354994	  0.185645	 -0.352228
F 	  4.128150	  0.999414	  0.752437
F 	  3.865549	  0.731246	 -1.536322
F 	  5.626766	 -0.314607	 -0.440328
