29

H 	1.925537386	0.933888240	-0.033456336
C 	0.000000000	0.000000000	0.000000000
C 	1.377312693	-0.000000000	0.000000000
C 	2.166927474	-1.193884669	0.000000000
O 	3.437848060	-1.171499056	-0.100850631
H 	-0.522945533	-0.947968752	0.110100445
H 	-0.009771103	0.698196328	-2.682342171
H 	-1.509508984	-0.357465543	-2.342507163
H 	0.154863226	-1.155265709	-2.634337499
C 	-0.433716992	-0.267166492	-2.435231677
C 	1.544515146	-2.565852651	0.114077900
H 	0.897065004	-2.764193183	-0.750075392
H 	0.924829991	-2.644157198	1.014829948
H 	2.335188956	-3.317574251	0.147303747
C 	-2.549308266	3.411217009	0.432673213
C 	-3.072990833	2.114917502	0.503726360
C 	-2.228653787	1.015714549	0.354571017
C 	-0.844939460	1.187498470	0.135304819
C 	-0.331819776	2.500801929	0.064603339
C 	-1.177622503	3.597810331	0.211617062
H 	-4.136548173	1.963541969	0.673063746
H 	-2.636251048	0.007464913	0.406724750
H 	0.728492588	2.664259382	-0.106321282
H 	-0.767742109	4.603635127	0.158590325
H 	-3.204809598	4.271535194	0.546386305
B 	4.354994118	0.185644649	-0.352227532
F 	4.128150104	0.999414282	0.752436706
F 	3.865549050	0.731245516	-1.536322064
F 	5.626765596	-0.314607046	-0.440327945
