29

H 	1.531485867	2.368537281	-0.360912547
C 	3.279073056	1.155971710	-0.598787617
C 	1.946228762	1.368310622	-0.324145071
C 	1.043664073	0.326313167	0.061173487
O 	-0.161057588	0.560364935	0.407261036
H 	3.650567745	0.133533618	-0.627958453
H 	3.969782028	2.268428398	1.844139795
H 	5.222630797	0.953306559	1.419936965
H 	3.584791287	0.479403070	2.184582063
C 	4.212794460	1.222160765	1.706342538
C 	1.461356767	-1.125392863	0.089270382
H 	2.258295058	-1.278914839	0.828602464
H 	1.850372091	-1.442795370	-0.885110586
H 	0.601605054	-1.741599858	0.358473513
C 	6.044811199	4.018100377	-2.174062907
C 	6.385364972	2.662324529	-2.099367724
C 	5.474204113	1.745153798	-1.577847606
C 	4.204155343	2.161352972	-1.123967570
C 	3.875716505	3.532018025	-1.204352433
C 	4.788520522	4.447169702	-1.723687541
H 	7.359133758	2.323443853	-2.445313035
H 	5.740052573	0.691103185	-1.516816706
H 	2.906844167	3.882431660	-0.859834577
H 	4.520376829	5.499349761	-1.782961280
H 	6.753463655	4.737258893	-2.578269253
B 	-0.834960582	2.065244042	0.572729768
F 	-0.768291624	2.645001952	-0.689569054
F 	-0.033057319	2.712928394	1.509091225
F 	-2.103964457	1.787929441	1.006483053
