42

C 	-2.004456727	-4.996142645	-8.009183734
H 	-3.901802548	-4.378793856	-8.560693935
H 	-2.070514106	-7.050696030	-7.792839270
H 	-0.726244767	-4.556129894	-9.578115848
H 	-0.974064547	0.303704651	-4.267980014
C 	-1.528164995	-0.767132128	-5.945429499
H 	-0.385711130	-0.085426184	-7.529664539
H 	-3.509791430	-0.328231444	-6.354577674
C 	-2.933437246	-4.507914307	-3.378694685
H 	-2.773093360	-6.535466586	-2.998377854
H 	-4.911761498	-4.134811675	-3.861852982
H 	-2.554121742	-3.483875934	-1.618622727
H 	4.443324734	-7.186271161	-4.533109553
H 	1.451993952	-7.988334008	-3.267573479
H 	1.952725266	-8.050082888	-6.573175315
H 	10.298731082	1.374294310	3.405109542
H 	8.171207832	-0.983303852	4.449558808
H 	10.187571080	-1.602960695	1.848430884
N 	5.410023941	-1.152766422	0.013698058
C 	4.757289105	-1.561240739	-2.479989336
N 	2.550174161	-2.901544262	-2.729734067
C 	7.083107479	0.894676037	0.904312696
H 	4.066056409	-1.632204717	1.292762851
C 	1.678837867	-4.216296930	-5.015526832
H 	1.824045159	-3.601596329	-1.102791726
H 	8.068047493	1.534804113	-0.792680035
C 	2.404533385	-7.028320652	-4.836381419
C 	9.046543996	-0.145783886	2.770267313
H 	6.377208562	5.539436865	-1.198569963
H 	2.771672400	-3.369180273	-6.550947468
C 	5.531121238	3.098033015	1.948937972
C 	4.196501293	2.918585246	4.235735504
C 	2.736052253	4.928988014	5.120047848
C 	2.593499912	7.172820204	3.738044986
C 	3.920176960	7.381808607	1.468761814
C 	5.369051164	5.361385490	0.583613152
H 	4.292765454	1.202313076	5.366805942
H 	1.715291194	4.746217445	6.897386896
H 	1.459615955	8.744229579	4.427372517
H 	3.824591344	9.121082164	0.374798963
C 	-1.191189826	-3.639401982	-5.554683137
S 	6.505305215	-0.555536603	-4.929989135
