34

H 	2.011830676	0.953846259	0.074783674
C 	0.000000000	0.000000000	0.000000000
C 	1.497360541	-0.000000000	0.000000000
C 	2.321405599	-1.162044799	0.000000000
O 	3.583986348	-1.059072819	0.098063799
H 	-0.363436509	-0.764165637	-0.702474503
H 	-1.670091933	1.342594182	-0.408508728
H 	-0.237484339	1.638321028	-1.424386282
C 	-0.575373611	1.369712743	-0.416825988
H 	-0.248134080	2.152934233	0.276032287
C 	2.774013861	-3.674377548	-0.139242280
C 	1.729352487	-2.553946358	-0.117200699
H 	3.376456522	-3.665729049	0.774570194
H 	3.460167373	-3.557877305	-0.984249672
H 	2.278973816	-4.647960573	-0.222330087
H 	1.027681007	-2.686237999	0.719779304
H 	1.105017605	-2.580493187	-1.023930690
O 	-2.703495885	-2.876423707	3.042886116
H 	-2.982254530	-3.244417467	2.185321778
C 	-1.791598794	-1.865480231	2.834973453
C 	-1.275728665	-1.225003566	3.973448610
C 	-0.356545003	-0.189114745	3.814665677
C 	0.054360867	0.215852443	2.539601909
C 	-0.464270388	-0.424828108	1.400607961
C 	-1.379850962	-1.472732038	1.554405727
H 	-1.602818107	-1.550289549	4.957412096
H 	0.051990571	0.303998159	4.693379752
H 	-1.781446160	-1.978394007	0.676067322
H 	0.782702201	1.014535249	2.434357767
Ti	5.106341880	0.419474326	0.362602680
Cl	6.609462814	2.066125621	0.640397403
Cl	4.384272374	1.162673417	-1.648897373
Cl	3.969834183	0.890742909	2.268775593
Cl	6.539110167	-1.289569250	0.394813986
