34

H 	1.583367639	2.190000832	0.959635691
C 	3.634957221	1.447641861	0.509345454
C 	2.139182965	1.380097671	0.495716521
C 	1.365445997	0.378645454	-0.158365227
O 	0.098101565	0.461683968	-0.194038501
H 	4.042843330	0.439194490	0.671112158
H 	5.253331784	2.409862067	1.610999498
H 	3.827486189	2.025591014	2.606552706
C 	4.158765467	2.378357767	1.623035051
H 	3.786396056	3.398902060	1.480190485
C 	1.022638774	-1.803987490	-1.444699217
C 	2.018141895	-0.814855215	-0.830077262
H 	0.404432315	-1.315710490	-2.204614698
H 	0.347082889	-2.208271051	-0.684044570
H 	1.560029932	-2.635763835	-1.912877591
H 	2.710011949	-0.427440523	-1.592707680
H 	2.658854532	-1.313057578	-0.085805955
O 	6.404564752	0.875195784	-3.594730432
H 	6.713730230	0.105414248	-3.084440829
C 	5.454274795	1.557311690	-2.867779551
C 	4.891728234	2.698754106	-3.462008974
C 	3.932236164	3.428567981	-2.762064011
C 	3.526910449	3.036870659	-1.481082379
C 	4.092232989	1.895095047	-0.886510231
C 	5.048724398	1.152375518	-1.589031455
H 	5.215044314	2.990876881	-4.457555865
H 	3.487737386	4.308084783	-3.221488770
H 	5.486817417	0.262341213	-1.136964505
H 	2.767210215	3.608235506	-0.955868688
Ti	-1.490182486	1.767071108	0.395000577
Cl	-3.066636306	3.220194090	1.066737048
Cl	-0.765200182	1.297533778	2.486363071
Cl	-0.408373683	3.269643911	-0.916183499
Cl	-2.849292864	0.302169505	-0.595743966
