26

H 	1.905175646	0.935152179	-0.000682394
C 	0.000000000	0.000000000	0.000000000
C 	1.358265438	0.000000000	-0.000000000
C 	2.166437631	-1.202269670	-0.000000000
O 	3.423884629	-1.158900212	-0.001687702
H 	-0.522576545	-0.956829318	0.004247132
C 	-2.631209094	3.362839299	-0.007077721
C 	-1.243976040	3.573393157	-0.023689247
C 	-0.368849346	2.491959121	-0.022119880
C 	-0.866113886	1.167550219	-0.003811422
C 	-2.266019639	0.973422875	0.011739397
C 	-3.140266772	2.059544428	0.010837412
H 	-0.848995753	4.586424594	-0.038129039
H 	0.702296402	2.672062623	-0.036157598
H 	-2.660136147	-0.041176449	0.025276305
H 	-4.214756499	1.892557384	0.023721843
H 	-3.309628324	4.212958291	-0.008170691
C 	1.532242360	-2.579182230	0.001830044
H 	2.320149416	-3.333922854	0.028495843
H 	0.923060798	-2.721042719	-0.899283502
H 	0.876701386	-2.703507303	0.871970667
Sn	5.009770515	0.617892622	-0.009894538
Cl	3.918684339	1.220557449	-2.042929149
Cl	6.472434976	-1.235061890	-0.014107441
Cl	6.643948085	2.366467001	-0.017932779
Cl	3.935433045	1.225015917	2.031026246
