4
CH3 optimized with DFTB in AMS.
H        2.02608204291075      -0.89431383205463      -0.04152114358836
C        1.08724815975279      -0.37774891708218      -0.00029056550189
H        0.59012420842798      -0.24053159388592       0.94026969314123
H        0.64998617890848       0.01341248302273      -0.89845798405099
