27

H 	0.850435897	-1.551567219	-0.057628615
C 	-0.491999532	0.080332216	0.615947508
C 	0.627893128	-0.493412255	-0.161931853
C 	1.452195324	0.274956015	-1.015599392
O 	2.414913555	-0.171557339	-1.716423314
H 	-0.513374660	1.170046408	0.465225881
H 	-1.043033686	0.233623546	2.732229386
H 	0.705159645	0.244480453	2.441526274
C 	-0.243609086	-0.201365396	2.125429596
H 	-0.191184522	-1.275710139	2.325010674
H 	1.252070797	1.357885061	-1.082839475
C 	-2.019596464	-0.098447291	-1.411498560
C 	-1.901565840	-0.455969087	0.088226181
C 	-3.025488617	0.261534240	0.863920004
C 	-2.033220181	-1.982906061	0.263803610
H 	-1.968026529	-2.279440798	1.316300746
H 	-3.012608026	-0.372177069	-1.786946694
H 	-1.276542048	-0.636683611	-2.010099230
H 	-1.885702533	0.979351963	-1.573429040
H 	-3.996918155	-0.007261632	0.430949938
H 	-2.921457744	1.352512740	0.801874917
H 	-3.048028052	-0.023717165	1.920741803
H 	-3.012002163	-2.308278230	-0.109199277
H 	-1.269982913	-2.525948664	-0.302538030
Sn	3.014192576	-2.438628455	-2.148414949
Cl	3.098550553	-2.968166169	0.274650514
Cl	0.614289533	-2.992205882	-2.519859796
