20
GO, R2=tBu, R1=H
C	-2.24739435	-0.15275078	 0.00153739
C	-1.01534307	-0.65337238	 0.00123109
C	 0.18142979	 0.20692652	-0.00051049
O	 1.30594657	-0.21785305	 0.00057052
H	-2.42984398	 0.91512542	-0.00171618
H	-0.83081061	-1.72306993	 0.00096881
C	-4.73544622	-0.15264364	 0.13618145
C	-3.50045591	-1.04797017	-0.00281907
C	-3.40593758	-2.01866217	 1.17826311
C	-3.54150486	-1.81671361	-1.32700950
H	-2.64909150	-2.43441261	-1.43380684
H	-5.64643433	-0.75350198	 0.13704272
H	-4.78627103	 0.55344939	-0.69340206
H	-4.69092996	 0.41142404	 1.06849325
H	-4.27954897	-2.67198022	 1.20842061
H	-3.35225892	-1.46745429	 2.11775649
H	-2.51258994	-2.63775291	 1.08873104
H	-4.41892749	-2.46435424	-1.36728318
H	-3.58410154	-1.12208863	-2.16667670
H	-0.03219942	 1.25538364	-0.00003868
