66
TSRC, radical, enant=R, TSRC=1_13, R2=tBu, R1=H, Rch=O
C	-1.87926657	 1.02997773	 2.29772264
C	-0.83322487	 0.34084632	 1.71462898
C	-0.25124625	-0.84203531	 2.30753942
O	 0.66907067	-1.50564938	 1.81659174
H	 0.73455394	-4.15400838	-3.44034406
H	-2.15296170	 0.73668743	 3.31098647
H	-0.40690364	 0.66116507	 0.76901883
H	 5.96528033	 0.56212707	 0.88464330
H	 4.84836332	-0.63074054	 1.56827671
H	 0.45870913	-3.92556614	-1.70809936
H	 5.58675614	-0.92882795	-0.00740293
C	-3.80533551	-0.22299204	 1.65021333
H	-3.81473503	 0.00712755	 0.59158545
H	 2.07279201	-3.69485546	-2.38649068
H	-1.48750567	-1.48047370	-1.11734783
H	-4.52632797	 0.28854594	 2.27794142
H	-3.49457070	-1.21872548	 1.94571231
N	 2.94785716	-0.40468404	-0.39963038
C	 2.44356737	-0.59996314	-1.67555590
N	 1.22496245	-1.27619091	-1.66218300
C	 4.01059564	 0.55152187	-0.08396121
H	 2.36608769	-0.69380059	 0.37626763
C	 0.73935015	-2.04415671	-2.81144616
H	 0.95826844	-1.65159131	-0.76139090
H	 4.37544364	 0.90081875	-1.05236728
C	 1.00618256	-3.54278811	-2.57653861
C	 5.17152073	-0.15076552	 0.63906561
H	 3.33428222	 2.98829526	-1.09250845
H	 1.35628811	-1.71749602	-3.65295118
C	 3.44963372	 1.76053460	 0.67335746
C	 3.18942636	 1.72665995	 2.05067921
C	 2.64177199	 2.82813295	 2.70774414
C	 2.34283113	 3.99233930	 2.00096473
C	 2.59865346	 4.04275135	 0.63130609
C	 3.14379676	 2.93764934	-0.02271922
H	 3.41131598	 0.83372172	 2.62900642
H	 2.44906054	 2.77628341	 3.77773246
H	 1.91763071	 4.85255695	 2.51360112
H	 2.37532084	 4.94673325	 0.06824244
C	-0.74723132	-1.67389221	-3.17905624
C	-1.17403873	-2.44094305	-4.44960328
H	-2.14520767	-2.07716513	-4.80171746
H	-1.27749644	-3.51491202	-4.27210872
H	-0.45473671	-2.29995010	-5.26362836
C	-0.82025269	-0.16198212	-3.47986119
H	-0.16068740	 0.11096427	-4.30963588
H	-1.84163882	 0.12358659	-3.75405749
H	-0.52041408	 0.43176116	-2.61306783
C	-1.73877844	-2.00439744	-2.04351109
H	-1.77771260	-3.07603550	-1.82470319
H	-2.75143736	-1.69723639	-2.32728467
C	-1.34686125	 3.46300478	 2.22386421
C	-2.40249644	 2.41248311	 1.86585534
C	-3.71046160	 2.69004287	 2.61306316
C	-2.64352376	 2.38797614	 0.35342780
H	-3.37749885	 1.62234753	 0.09955240
H	-1.68307975	 4.45932723	 1.93192326
H	-0.40963952	 3.24838951	 1.70916521
H	-1.15999012	 3.46082545	 3.29831000
H	-4.11312842	 3.66463490	 2.33206382
H	-3.53987939	 2.68253661	 3.69019114
H	-4.45178957	 1.92649596	 2.37476019
H	-3.01619556	 3.35407612	 0.00890294
H	-1.71523807	 2.16595223	-0.17416144
H	-0.67002756	-1.13718507	 3.24690561
O	 3.09447900	-0.15333149	-2.86792087
