36

H 	1.555951600	2.208326870	0.573468500
C 	3.574429160	1.342681160	0.408045490
C 	2.093573320	1.289492090	0.355933180
C 	1.310686540	0.156518070	-0.024244480
O 	0.045774800	0.218116290	-0.150433250
H 	3.995393910	0.332953670	0.484815050
H 	5.159860430	2.233425750	1.610727010
H 	3.724924910	1.760857000	2.548734430
C 	4.065936520	2.190601930	1.600482100
H 	3.681643240	3.216063520	1.532831750
C 	1.008007180	-2.300166100	-0.706286730
C 	1.975101600	-1.187967850	-0.287588580
H 	0.473649310	-2.033013850	-1.623860860
H 	0.256842430	-2.481191790	0.069536930
H 	1.560769540	-3.230013060	-0.880710650
H 	2.745751440	-1.031684380	-1.059055440
H 	2.530279130	-1.473237370	0.619605900
C 	4.097395530	1.936428890	-0.975049740
C 	5.604879820	1.926458150	-1.062735680
C 	6.293156390	0.734602890	-1.350011650
C 	7.689089670	0.712075280	-1.417208710
C 	8.421303340	1.885100760	-1.194205670
C 	7.748082730	3.077171310	-0.904167530
C 	6.350794220	3.095104930	-0.835956570
H 	3.666616120	1.338449390	-1.786439040
H 	3.707207560	2.955319320	-1.078358860
H 	5.731671320	-0.180970220	-1.534172680
H 	8.204824950	-0.217633620	-1.649938250
H 	9.507869930	1.870924060	-1.249744380
H 	8.310119530	3.993297990	-0.733419300
H 	5.831390210	4.025778020	-0.613296300
Sn	-1.484920790	1.997081800	-0.172232080
Cl	-0.891149650	2.188624420	2.134423690
Cl	-2.911372730	0.242522850	-0.860812350
Cl	-3.069688060	3.790862250	-0.217576140
Cl	0.017586170	2.909049610	-1.801984650
