36

H 	1.580930975	2.139147650	0.681386826
C 	3.588864498	1.276524114	0.428753238
C 	2.109329806	1.225934043	0.420847520
C 	1.309395516	0.108380933	0.035635917
O 	0.048115607	0.200376668	-0.102965524
H 	4.011988823	0.265326645	0.433142164
H 	5.212486865	2.091233859	1.631963675
H 	3.802182565	1.574307792	2.583436284
C 	4.118867866	2.054271583	1.651299950
H 	3.739392590	3.083382431	1.651548467
C 	0.951215881	-2.342886495	-0.624014027
C 	1.946175395	-1.247378518	-0.228353493
H 	0.402670770	-2.067371137	-1.530164737
H 	0.213094875	-2.508109570	0.167300611
H 	1.482833971	-3.282696765	-0.807385603
H 	2.702345614	-1.106150480	-1.016689262
H 	2.515119786	-1.537066815	0.667955700
C 	4.060396709	1.952302567	-0.933016203
C 	5.563525359	1.972534455	-1.061381377
C 	6.263632253	0.803979568	-1.407094091
C 	7.656967288	0.806754652	-1.503775991
C 	8.375233826	1.982403303	-1.251981569
C 	7.689888886	3.152407968	-0.909054499
C 	6.294860383	3.144524520	-0.810569066
H 	3.613367820	1.392805959	-1.762126496
H 	3.651727507	2.967921217	-0.969966299
H 	5.711209383	-0.112430174	-1.611139415
H 	8.183198335	-0.104659119	-1.779583893
H 	9.460214444	1.986308685	-1.328225773
H 	8.240131782	4.071073349	-0.717667676
H 	5.765757937	4.057310564	-0.543151966
Sn	-1.367470201	2.057490096	-0.303507059
Cl	-0.877784200	2.377366683	2.010058804
Cl	-2.871585247	0.347105796	-0.931841301
Cl	-2.833633976	3.931795270	-0.559861051
Cl	0.268781627	2.777788735	-1.900698324
