24

H 	  1.934231	  0.932107	 -0.018115
C 	  0.000000	  0.000000	  0.000000
C 	  1.372053	  0.000000	 -0.000000
C 	  2.229333	 -1.150397	 -0.000000
O 	  3.441615	 -1.174708	  0.011597
H 	 -0.503389	 -0.953870	  0.136581
H 	 -0.160138	  0.561565	 -2.721774
H 	 -1.591731	 -0.530993	 -2.246134
H 	  0.099939	 -1.278442	 -2.500663
C 	 -0.524697	 -0.401090	 -2.384493
Br	  1.289506	 -2.969820	 -0.047074
C 	 -2.530075	  3.434191	  0.377479
C 	 -3.042580	  2.144488	  0.557922
C 	 -2.205255	  1.037270	  0.424341
C 	 -0.837340	  1.195862	  0.116409
C 	 -0.335388	  2.502810	 -0.062773
C 	 -1.174262	  3.607492	  0.065822
H 	 -4.093084	  2.003204	  0.801586
H 	 -2.604059	  0.034008	  0.562315
H 	  0.711392	  2.656071	 -0.311245
H 	 -0.773109	  4.608101	 -0.077634
H 	 -3.181367	  4.299513	  0.476711
I 	  4.932203	  1.228837	 -0.092975
I 	  6.283596	  3.642156	 -0.220620
