24

H 	1.501797860	2.328129280	-0.137473540
C 	3.227405550	1.099910680	-0.495526160
C 	1.924584080	1.324781640	-0.122968750
C 	0.980335450	0.339068670	0.321698550
O 	-0.186034290	0.497943860	0.615470310
H 	3.550889080	0.066301060	-0.595406030
H 	4.085026760	1.882360700	2.051303310
H 	5.417072800	0.851756550	1.254321000
H 	3.902112960	0.022988060	1.975067380
C 	4.417120000	0.925435770	1.666082880
Br	1.703318080	-1.566287160	0.505455860
C 	5.904182480	3.994366220	-2.170396060
C 	6.160697800	2.623947680	-2.299550780
C 	5.281043760	1.694792280	-1.743012770
C 	4.123094380	2.116366980	-1.054850510
C 	3.878478490	3.501184640	-0.931481620
C 	4.761676820	4.427881860	-1.482152780
H 	7.045699610	2.281980790	-2.831925830
H 	5.481487860	0.629005460	-1.840418010
H 	3.003020290	3.853643750	-0.391961220
H 	4.563677200	5.492033680	-1.372854380
H 	6.592090790	4.721672810	-2.596638540
I 	-1.390621510	3.036987200	0.496847170
I 	-2.520310600	5.560277700	0.367778420
