25

H 	1.930326714	0.920215773	0.001436388
C 	0.000000000	0.000000000	0.000000000
C 	1.353297890	-0.000000000	-0.000000000
C 	2.174346692	-1.201591955	0.000000000
O 	3.425266660	-1.195066757	-0.017616658
H 	-0.520547374	-0.957125846	-0.003106228
C 	-2.253414279	1.010154797	-0.024012242
C 	-3.110605161	2.111948502	-0.027432181
C 	-2.591308364	3.409371026	-0.003953924
C 	-1.203662396	3.565482869	0.022724873
C 	-0.325486090	2.494800731	0.025326519
C 	-0.852382919	1.182967960	0.001023721
H 	-2.663203373	0.003006566	-0.041639747
H 	-4.187445041	1.964562367	-0.047752713
H 	-3.232689851	4.286238342	-0.004982952
F 	-0.694012947	4.833158956	0.046884419
H 	0.743471703	2.686112153	0.047612921
O 	1.505863253	-2.370431551	0.017143365
C 	2.323851177	-3.585154118	0.010252574
H 	2.958808611	-3.612491555	0.899738456
H 	2.948362071	-3.610687956	-0.886400381
H 	1.603728413	-4.403639909	0.014526536
Zn	4.913743582	0.294657951	-0.108460732
Cl	6.721546169	-0.822673139	-0.388031834
Cl	4.046895041	2.265716514	0.111411871
