24

H 	0.919379740	-1.102868980	0.720734530
C 	-0.819559180	0.161706080	1.279350540
C 	0.535245880	-0.082750310	0.697894030
C 	1.316621130	0.800210750	-0.110053270
O 	2.245821630	0.494276800	-0.840062260
H 	-0.997003740	1.237976360	1.358320770
H 	-2.049297680	-0.377108020	2.991297890
H 	-0.356337740	-0.007041630	3.400039140
C 	-1.009268310	-0.489238880	2.663732420
H 	-0.768538830	-1.558039780	2.650344700
Cl	0.839917710	2.590709350	-0.000222230
C 	-3.256404130	-1.380068290	-1.980352310
C 	-3.005112100	-0.007540730	-1.869690690
C 	-2.246399300	0.482417730	-0.803984800
C 	-1.743974890	-0.391738330	0.175589510
C 	-1.999974200	-1.769599900	0.055028030
C 	-2.755053380	-2.258323110	-1.012271600
H 	-3.391391720	0.680462370	-2.618836540
H 	-2.030498200	1.546015150	-0.732724890
H 	-1.602602420	-2.465716070	0.789316730
H 	-2.939035210	-3.326515140	-1.099238190
H 	-3.828235610	-1.765442820	-2.821378700
I 	1.042601730	-1.669509220	-2.560684060
I 	-0.352157510	-3.544558220	-4.004273490
