30

H 	2.533354209	0.269221667	1.174422893
C 	4.137106538	-0.259784031	-0.118502111
C 	2.938522818	-0.454521362	0.470165543
C 	1.954423259	-1.470258431	0.071769755
O 	0.722158146	-1.122648410	-0.022967814
H 	4.497307319	-0.970197581	-0.859085091
C 	4.574935114	2.068757284	0.766295810
C 	5.445479019	3.135227843	0.970999556
C 	6.776985437	3.054311207	0.537744183
C 	7.237698068	1.903025943	-0.107847622
C 	6.349687885	0.853056901	-0.300644829
C 	5.009790376	0.883910184	0.127957760
H 	3.535507486	2.155328271	1.071393544
H 	5.084905117	4.038950903	1.455152415
H 	7.455443583	3.889646105	0.693142942
H 	8.261632639	1.810869694	-0.459093295
F 	6.811543078	-0.277963426	-0.929666698
N 	2.277499777	-2.748318002	-0.198957124
C 	1.257851551	-3.670401058	-0.731329018
C 	3.579568268	-3.358517492	0.107980991
H 	0.415079869	-3.100064859	-1.118263233
H 	0.907014385	-4.342839300	0.061696135
H 	1.709881241	-4.266680297	-1.531161344
H 	4.160417762	-3.521331272	-0.808185988
H 	3.401934542	-4.328693764	0.585201067
H 	4.145401519	-2.723313937	0.788062116
Al	-0.035341906	0.583694686	-0.053709170
F 	0.571167917	1.262175876	-1.471218171
F 	0.582479768	1.344558447	1.330470265
F 	-1.683443333	0.280082780	-0.023492938
