27

H 	1.784490101	1.965919333	1.209463584
C 	3.617892565	1.045595742	0.322115874
C 	2.141762738	1.193580725	0.529332601
C 	1.128892220	0.452827584	-0.156007656
O 	-0.096808738	0.720852418	0.010074159
H 	3.858618166	-0.021597683	0.210770721
H 	5.498941360	1.488505902	1.338035921
H 	4.156983858	1.093530397	2.439406800
C 	4.424696066	1.611754211	1.511247009
H 	4.220699822	2.680374376	1.642808908
C 	1.502177118	-0.675501696	-1.101682710
H 	2.137235065	-1.416113944	-0.599304867
H 	2.072888759	-0.279169142	-1.951276346
H 	0.593787287	-1.159154409	-1.466563521
C 	3.617416435	3.048978088	-1.263127411
C 	3.977533355	3.667389287	-2.463474361
C 	4.726546337	2.978587461	-3.424037716
C 	5.096283741	1.666121360	-3.145113235
C 	4.749041574	1.022886352	-1.960491474
C 	4.005624664	1.723513199	-1.000984698
H 	3.030201828	3.597205070	-0.531030367
H 	3.670757709	4.692360433	-2.657299428
H 	5.017413635	3.437032404	-4.364919297
F 	5.829303769	0.973996213	-4.073196425
H 	5.062453976	-0.005015770	-1.795695955
I 	-0.969534303	2.945149412	1.189083588
I 	-1.935928574	5.314917648	2.321572391
