12
C4H7O optimized with DFTB in AMS.
C        0.08771579132044       0.45700828781016       0.15221144232116
C        0.88073107011669      -0.77684434388282       0.32818168306059
H        0.31072775703131      -1.65465695567638       0.00636293203827
C       -1.23209231858823       0.47838567636615      -0.38982219741261
H        0.52101504503878       1.39837371938554       0.47325963837512
O       -1.88488481560535       1.50332438844888      -0.52633049015234
C        1.33718256360418      -0.95406844122464       1.78666599700737
H        1.94531249241549      -1.85367337197124       1.87160600308652
H        0.46976518452420      -1.04879089553953       2.43900618164165
H        1.92706330428330      -0.09588086172388       2.10758885231905
H        1.78288605525790      -0.71088203564226      -0.29458808713198
H       -1.63743026939870      -0.51177925634997      -0.68473003515278
