30

H 	2.022918582	0.952071661	0.054480729
C 	0.000000000	0.000000000	0.000000000
C 	1.497500616	-0.000000000	0.000000000
C 	2.321365205	-1.171334393	-0.000000000
O 	3.556294360	-1.091819517	0.264549154
H 	-0.345833186	-0.621326566	-0.840574366
H 	-1.668977209	1.389562722	-0.238644079
H 	-0.197052304	1.871152156	-1.113807301
C 	-0.576059020	1.422572754	-0.188084825
H 	-0.289895713	2.064413757	0.652942558
C 	2.751291713	-3.638938633	-0.556309888
C 	1.715794766	-2.536584671	-0.308008579
H 	3.408946364	-3.761572712	0.309457067
H 	3.382434641	-3.399645041	-1.419270846
H 	2.246328555	-4.591470341	-0.750808133
H 	1.076737724	-2.795171147	0.550842792
H 	1.029516708	-2.437570049	-1.160365712
C 	0.045812740	-0.435887237	2.531111769
C 	-0.476851448	-1.020777345	3.686930977
C 	-1.610015449	-1.838348428	3.608199960
C 	-2.221557653	-2.068683057	2.371243862
C 	-1.678020663	-1.470240118	1.239781351
C 	-0.546755306	-0.650498411	1.274710372
H 	0.934758879	0.188104723	2.596349978
H 	0.001952158	-0.840008546	4.645917528
H 	-2.020061656	-2.297947114	4.504212635
H 	-3.102709317	-2.697180744	2.274121122
F 	-2.286335100	-1.704247726	0.026131792
I 	4.221977826	0.778025820	2.005627082
I 	4.896966816	2.559467919	4.056866679
