30

H 	1.500104988	1.624285061	1.419004740
C 	3.557455759	1.282013967	0.611684180
C 	2.088333817	1.018010209	0.732062031
C 	1.357398093	0.059682889	-0.041319399
O 	0.092430659	0.081795483	-0.068288120
H 	4.090873113	0.325045995	0.720729068
H 	5.146557504	2.374263601	1.638848656
H 	3.830165558	1.838282251	2.708539365
C 	4.062961681	2.239785808	1.715346266
H 	3.586646803	3.221829639	1.615895667
C 	1.199839831	-2.117254217	-1.390210947
C 	2.097717840	-0.996208582	-0.855268437
H 	0.405027428	-1.714098237	-2.024907471
H 	0.722066773	-2.664682735	-0.570235730
H 	1.793538628	-2.825173690	-1.978858356
H 	2.585277133	-0.463645121	-1.686862473
H 	2.919727415	-1.401355030	-0.249091265
C 	3.080193955	2.737845778	-1.450207715
C 	3.421006205	3.230641448	-2.712028530
C 	4.601003543	2.807949235	-3.334619308
C 	5.441494667	1.892594764	-2.692124824
C 	5.074873566	1.422525714	-1.435781766
C 	3.904574958	1.816489682	-0.781448998
H 	2.155021888	3.059802801	-0.976659881
H 	2.764647165	3.940994232	-3.208190992
H 	4.870390475	3.186541218	-4.317628133
H 	6.365125734	1.543883519	-3.146191496
F 	5.908194815	0.520318390	-0.811803476
I 	-1.001229711	2.477503274	0.119593716
I 	-2.154685722	5.026669259	0.030028169
