29

H 	0.803764709	-1.778206211	0.010011406
C 	-0.617465373	-0.175278172	0.569743175
C 	0.108764558	-1.098602158	-0.488468527
C 	0.817647596	-0.250468821	-1.465672872
O 	2.044204280	-0.052316934	-1.526319308
H 	-1.107658274	0.644715867	0.021790069
H 	-0.650844098	-1.661587528	-1.045371860
H 	0.939097270	-0.333230833	2.104051754
C 	0.438400175	0.437394206	1.508706913
H 	1.219014207	0.965662996	0.951518985
H 	-0.014766623	1.162410978	2.189710806
H 	0.203267907	0.301579123	-2.199000730
C 	-2.892905102	-1.302865586	0.283110704
C 	-1.776910551	-0.955868428	1.295508726
C 	-2.394318173	-0.036654877	2.379019441
C 	-1.265612915	-2.251855432	1.962209673
H 	-0.458584560	-2.050231577	2.674660025
H 	-3.734659058	-1.778199349	0.799925043
H 	-2.557966670	-2.004345883	-0.489901272
H 	-3.271170864	-0.400219056	-0.213942410
H 	-3.288840904	-0.510812348	2.799342415
H 	-2.693837154	0.931384238	1.957160944
H 	-1.699035446	0.148367733	3.203121433
H 	-2.082305370	-2.734423986	2.512131097
H 	-0.895232175	-2.973735315	1.225559232
Al	3.561982282	-0.625284339	-0.498682853
F 	2.986366459	-1.956596066	0.359960013
F 	3.815850816	0.742685746	0.436047804
F 	4.674695561	-0.971286998	-1.695459348
