28

H 	1.638411070	2.426501150	-0.186870380
C 	3.351435140	1.177925910	-0.466382690
C 	2.032579820	1.413066210	-0.206187270
C 	1.053072720	0.417183900	0.108448330
O 	-0.150970890	0.636576640	0.344915630
H 	3.699182360	0.145861460	-0.497205060
H 	4.232618380	1.926012860	2.320609400
H 	4.836913200	0.186809880	1.970119100
H 	3.061042720	0.481351610	2.478291340
C 	4.023245620	0.873587710	2.172300510
Cl	1.558716100	-1.289625530	0.199530950
C 	4.303348060	2.019285540	-2.546751400
C 	4.320361010	2.212025960	-0.991818910
C 	5.758200570	1.933937060	-0.486955660
C 	3.907594570	3.659761750	-0.650925630
H 	3.826375800	3.805622220	0.432333950
H 	5.001112910	2.735774970	-2.997296060
H 	3.302849140	2.198756510	-2.954001030
H 	4.620630310	1.008022220	-2.827806820
H 	6.468777640	2.567414560	-1.030357270
H 	6.043976120	0.887627900	-0.651924880
H 	5.857086540	2.153921030	0.580131700
H 	4.662707440	4.355994270	-1.033092170
H 	2.948441980	3.930825750	-1.105167040
Al	-1.163469830	2.260616170	0.338876840
F 	-1.254076010	2.577884750	-1.308614230
F 	-0.114166030	3.304726670	1.150551990
F 	-2.572566070	1.847788450	1.134123550
