29

H 	2.034007731	0.929695512	0.153814217
C 	0.000000000	0.000000000	0.000000000
C 	1.493647551	-0.000000000	-0.000000000
C 	2.299159501	-1.185936250	0.000000000
O 	3.542306436	-1.217341218	0.201978275
H 	-0.355975648	-0.773577559	-0.693559918
H 	-1.671119586	1.338526188	-0.403700423
H 	-0.248647955	1.632514943	-1.432477291
C 	-0.576610576	1.367880382	-0.420290832
H 	-0.246552115	2.155703892	0.266038747
O 	1.623566202	-2.330606910	-0.249937014
C 	2.406990900	-3.562940071	-0.222777876
H 	2.842050952	-3.705593634	0.770585879
H 	3.205703233	-3.518124701	-0.968207503
H 	1.692523306	-4.352881415	-0.455445569
C 	-1.341304336	-1.172737047	3.967971456
C 	-0.435668179	-0.116883529	3.816627257
C 	0.000496779	0.257805403	2.543061378
C 	-0.468538876	-0.420302541	1.404420146
C 	-1.360925668	-1.489452470	1.564217790
C 	-1.802542952	-1.859021961	2.838117782
H 	-0.062561996	0.413095874	4.690107917
H 	0.718601027	1.067578600	2.438882097
H 	-1.713423643	-2.029955585	0.687728427
H 	-2.505329871	-2.682236240	2.948884556
H 	-1.680768687	-1.463995040	4.959434182
Zn	4.852109215	0.171945003	1.049971534
Cl	6.826646911	-0.514315869	0.575212876
Cl	3.699849787	1.690805019	2.084148722
