29

H 	1.435754002	2.084641185	1.080568267
C 	3.484262668	1.315568053	0.593414518
C 	1.990980498	1.283458311	0.601181969
C 	1.201315321	0.354804145	-0.153354075
O 	-0.044698133	0.433120192	-0.322211600
H 	3.862669893	0.285199928	0.629687950
H 	5.144475686	2.121904986	1.751335301
H 	3.736732965	1.659294535	2.737483754
C 	4.050141533	2.110322801	1.788557554
H 	3.697585501	3.147571325	1.766820334
O 	1.896284834	-0.670144819	-0.697102852
C 	1.128831699	-1.616608610	-1.502310202
H 	0.678128671	-1.100284585	-2.354762617
H 	0.342954487	-2.076075173	-0.896585329
H 	1.857678430	-2.357084170	-1.832588737
C 	4.770284284	2.980899019	-3.213425137
C 	3.853622832	3.676013881	-2.416897875
C 	3.435225505	3.140067725	-1.196116524
C 	3.933305297	1.900845214	-0.757285380
C 	4.836746038	1.200634187	-1.568747263
C 	5.260520871	1.740845290	-2.786538493
H 	3.458110276	4.633886890	-2.747206775
H 	2.708460226	3.680276639	-0.594247581
H 	5.211847704	0.232306965	-1.242751597
H 	5.972033013	1.194191225	-3.401989781
H 	5.095910933	3.398461925	-4.163516767
Zn	-1.387565250	2.014894126	-0.078303378
Cl	-3.344137158	1.141457532	-0.142207710
Cl	-0.273987007	3.868240599	0.092606958
