30

H 	1.560176780	2.076185370	-0.510525640
C 	3.425973220	1.042514510	-0.655632440
C 	2.065421130	1.113066790	-0.480027560
C 	1.182869730	-0.006970340	-0.203376600
O 	-0.043422050	0.175876240	-0.027021390
H 	3.896793480	0.064424390	-0.734828310
H 	3.780004680	1.951391260	1.920066390
H 	5.305119260	1.019728920	1.397467300
H 	3.802756790	0.091525960	1.998914810
C 	4.250044940	1.014323220	1.645769980
C 	0.689211000	-2.490883850	0.233445830
C 	1.738909970	-1.430583490	-0.122989570
H 	-0.118269130	-2.507941030	-0.505712010
H 	0.236493490	-2.283202410	1.208880220
H 	1.152548480	-3.483485040	0.268228020
H 	2.208704320	-1.660079340	-1.091628260
H 	2.559461620	-1.434455750	0.610034790
C 	5.589426790	1.916232430	-1.510358010
C 	6.425398970	2.958552000	-1.916439720
C 	5.974118040	4.282717280	-1.888557800
C 	4.672433300	4.523036050	-1.444909330
C 	3.818660370	3.508091100	-1.034951150
C 	4.275481610	2.173358360	-1.066629410
H 	5.951832360	0.890223660	-1.534732190
H 	7.435900910	2.742679990	-2.256319090
H 	6.605006350	5.111883100	-2.197273760
F 	4.219676770	5.816890600	-1.410252890
H 	2.818611880	3.764467410	-0.698184420
I 	-1.211723170	2.626278800	-0.152338150
I 	-2.440512890	5.133484960	-0.276269390
