24

H 	0.27317600	-2.11946500	0.25900300
C 	-1.03258600	-0.39661700	0.35478300
C 	0.17900900	-1.03902500	0.19248800
C 	1.38718800	-0.30780700	-0.07824700
O 	2.49511800	-0.83810200	-0.23516400
H 	-1.04811500	0.66908900	0.13041700
H 	-0.81207900	-0.66609300	3.10755000
H 	-1.96938300	0.72800500	2.70929700
H 	-0.13188900	0.98534200	2.61039800
C 	-0.97387800	0.30396900	2.65310300
C 	-4.92827800	-2.18761000	0.29434700
C 	-4.75691300	-0.83395900	0.00214600
C 	-3.48632800	-0.26675300	0.04671600
C 	-2.35496800	-1.03890000	0.37136900
C 	-2.54653800	-2.40195400	0.66545800
C 	-3.81733100	-2.96646600	0.62844800
H 	-5.61364100	-0.21886900	-0.26221700
H 	-3.36299500	0.78898300	-0.18489500
H 	-1.70040400	-3.02771800	0.93298000
H 	-3.94309300	-4.02126600	0.86070800
H 	-5.91936000	-2.63349500	0.26395900
H 	1.28640100	0.79488800	-0.15525700
I 	4.70847700	0.76343900	-0.72373400
I 	6.84224000	2.40646800	-1.19366300
