26

C 	0.706905506	-0.236208623	0.951113548
C 	1.136747889	-0.206526931	-0.344739464
C 	-1.015372296	0.009197656	-1.470371239
H 	0.627729120	-1.179030343	1.485824069
C 	0.235396922	0.905022253	1.762213982
H 	-1.312937341	-1.032532723	-1.443798818
H 	1.329592285	0.757569549	-0.817611577
H 	-0.696734780	0.424425525	-2.420434758
H 	-1.454732652	0.680792060	-0.742580313
O 	-0.154229756	0.744473826	2.926897482
N 	0.200158665	2.156873229	1.166246126
H 	0.721637402	2.349722768	0.320843903
H 	0.023335220	2.937276565	1.788331967
C 	3.339731349	-1.295233480	-0.587659260
C 	1.849506250	-1.371320714	-1.034784525
C 	1.795927054	-1.219552648	-2.572155919
C 	1.268688723	-2.743697593	-0.632784390
H 	0.204338368	-2.811318857	-0.883290609
H 	3.920201524	-2.086448073	-1.078509677
H 	3.425869383	-1.417250932	0.497293568
H 	3.784196027	-0.329607928	-0.858641271
H 	2.453248749	-1.958398654	-3.045743316
H 	2.133042897	-0.222086797	-2.881959956
H 	0.783330931	-1.372712837	-2.956593560
H 	1.796362504	-3.541665422	-1.168299802
H 	1.380155146	-2.936391624	0.439340109
