34

H 	1.344976540	1.927060170	-1.048911660
C 	3.254674250	1.092543640	-0.571129200
C 	1.879269300	1.059779810	-0.668811440
C 	1.005758140	0.103186160	0.004094800
O 	-0.051869840	0.527600140	0.591124730
H 	3.779241880	0.199670270	-0.236255630
H 	3.122654580	2.858196390	1.465181470
H 	4.621351690	1.786548330	1.678402800
H 	2.945750810	1.167705490	2.211833810
C 	3.540228880	1.872399170	1.639096890
N 	1.289018120	-1.224983570	0.066031100
C 	2.209527130	-1.910341810	-0.849993120
C 	0.481648760	-2.098079780	0.935437670
H 	2.528665930	-1.230358190	-1.639968860
H 	1.689503150	-2.763215710	-1.304827590
H 	3.089952840	-2.288756360	-0.313223710
H 	1.131389630	-2.880935320	1.342317200
H 	-0.332349720	-2.569571810	0.367352650
H 	0.053362410	-1.506387430	1.744840150
O 	6.537960430	4.964198560	-3.092141650
H 	7.447299940	4.633321190	-3.205837210
C 	5.775181450	3.997887620	-2.471786490
C 	4.431058180	4.310986380	-2.209813440
C 	3.608859900	3.376848360	-1.590743420
C 	4.101771040	2.107055310	-1.215710510
C 	5.458087400	1.822241000	-1.465180280
C 	6.290362070	2.749270090	-2.093866060
H 	4.052496810	5.290828670	-2.490055780
H 	2.578901180	3.648189310	-1.371237080
H 	5.866682150	0.856829650	-1.169178990
H 	7.335189030	2.506371660	-2.286296150
Zn	-0.044804810	2.359483670	1.488324170
Cl	-0.009288570	4.024207290	0.085609600
Cl	0.088905100	1.961935050	3.613160420
