26

H 	0.455695675	-1.818059246	-0.311027826
C 	-0.755988619	-0.021832725	-0.403399643
C 	0.430911609	-0.732111736	-0.368845147
C 	1.670603745	-0.045434602	-0.354628269
O 	2.784825684	-0.640831518	-0.269222572
H 	-0.680028453	1.055876908	-0.550324960
H 	-0.640876175	-0.376259562	2.372205030
H 	-2.079628585	0.738203877	1.967618562
H 	-0.337830644	1.417861475	1.979880059
C 	-1.009945778	0.566502959	1.985645227
H 	1.665840618	1.053443167	-0.415785553
C 	-4.726607881	-1.553989107	-0.861502397
C 	-3.671202003	-2.439789857	-0.600855280
C 	-2.371111896	-1.960421324	-0.450708235
C 	-2.099885368	-0.578435646	-0.554950372
C 	-3.174208719	0.301311238	-0.817413182
C 	-4.472925594	-0.180968806	-0.972823718
H 	-3.865785587	-3.506622151	-0.515234724
H 	-1.565367901	-2.660191870	-0.245027023
H 	-2.978392836	1.369407375	-0.897728739
H 	-5.287657004	0.510438004	-1.176385413
H 	-5.740220269	-1.932500126	-0.975567695
B 	4.163586933	0.324295759	-0.180181640
F 	3.998284882	1.007943064	1.017719426
F 	4.075596587	1.148077460	-1.294468684
F 	5.185705659	-0.586218291	-0.200593493
