24

H 	  1.939938	  0.909688	  0.001555
C 	  0.000000	  0.000000	  0.000000
C 	  1.352388	  0.000000	 -0.000000
C 	  2.047151	 -1.262469	 -0.000000
O 	  3.276779	 -1.451768	  0.000723
H 	 -0.499772	 -0.972235	 -0.000333
C 	 -1.831224	  1.048337	 -1.263194
C 	 -0.939366	  1.174718	  0.000511
C 	 -0.218242	  2.532165	  0.000084
C 	 -1.830518	  1.049121	  1.264887
H 	 -1.234790	  1.130977	  2.178700
H 	 -2.573731	  1.852278	 -1.272515
H 	 -2.368340	  0.094906	 -1.285220
H 	 -1.235541	  1.125468	 -2.177472
H 	 -0.951876	  3.343416	 -0.001541
H 	  0.412460	  2.656094	 -0.884923
H 	  0.410217	  2.657528	  0.886549
H 	 -2.575841	  1.850536	  1.272042
H 	 -2.364551	  0.094005	  1.289926
H 	  1.420911	 -2.170690	 -0.000445
B 	  4.522343	 -0.212248	  0.003831
F 	  4.265837	  0.489886	  1.155167
F 	  4.280271	  0.479148	 -1.156724
F 	  5.644408	 -0.975566	  0.014981
