25

H 	1.910199560	0.926388057	-0.006432999
C 	0.000000000	0.000000000	0.000000000
C 	1.344430438	0.000000000	0.000000000
C 	2.200365576	-1.181544678	0.000000000
O 	3.409862826	-1.186332462	-0.025759677
H 	-0.517417339	-0.959726177	0.004468739
C 	-0.114744535	2.541579981	0.001548666
C 	-0.894788803	1.212550246	-0.011382406
C 	-1.812897294	1.127346185	1.240549616
C 	-1.774922160	1.129862773	-1.291511263
H 	-2.344459573	0.193657732	-1.322154200
H 	-0.815929889	3.383526456	-0.002061926
H 	0.529120398	2.637401390	-0.880254543
H 	0.511779747	2.629785133	0.896578547
H 	-2.522927961	1.962892132	1.235138204
H 	-1.223782408	1.180360337	2.162960579
H 	-2.384945137	0.192119538	1.250161430
H 	-2.486444431	1.964114805	-1.304000385
H 	-1.157598431	1.187698193	-2.194885310
Cl	1.345298630	-2.806926765	0.047670120
Sn	5.380939217	0.882362759	-0.204689184
Cl	6.602334986	-1.111322363	-0.176229962
Cl	4.247679827	1.408925201	1.793292616
Cl	7.026407713	2.570681294	-0.353101263
Cl	4.063142248	1.243277790	-2.124762196
