26

H 	1.949948910	0.919926921	-0.027363095
C 	0.000000000	0.000000000	0.000000000
C 	1.377448495	-0.000000000	0.000000000
C 	2.161877367	-1.194458923	-0.000000000
O 	3.382901169	-1.322963071	-0.025931423
H 	-0.505242522	-0.948541562	0.162932517
H 	0.026949799	0.404874326	-2.736060331
H 	-1.578753358	-0.412366679	-2.262610064
H 	-0.020456603	-1.431075024	-2.410399917
C 	-0.499787603	-0.460618849	-2.352475413
F 	1.431470771	-2.364616439	0.023271371
C 	-2.525703062	3.433864583	0.389879559
C 	-3.029051148	2.147240537	0.613937071
C 	-2.194155963	1.039394096	0.472280459
C 	-0.838014635	1.195598542	0.116141058
C 	-0.345096927	2.498381714	-0.108803311
C 	-1.182523641	3.603610932	0.026304304
H 	-4.070088127	2.009165361	0.896545896
H 	-2.585726331	0.038118504	0.642633755
H 	0.691287397	2.646445109	-0.400431654
H 	-0.790324115	4.601880428	-0.153332145
H 	-3.175122562	4.299896563	0.494727817
B 	4.620312785	0.162747035	-0.183654776
F 	4.320375173	0.848628677	0.950312430
F 	4.177364217	0.707635457	-1.349523531
F 	5.766425692	-0.538459713	-0.213535196
