26

H 	  1.949949	  0.919927	 -0.027363
C 	  0.000000	  0.000000	  0.000000
C 	  1.377448	 -0.000000	  0.000000
C 	  2.161877	 -1.194459	  0.000000
O 	  3.382901	 -1.322963	 -0.025931
H 	 -0.505243	 -0.948542	  0.162933
H 	  0.026950	  0.404874	 -2.736060
H 	 -1.578753	 -0.412367	 -2.262610
H 	 -0.020457	 -1.431075	 -2.410400
C 	 -0.499788	 -0.460619	 -2.352475
F 	  1.431471	 -2.364616	  0.023271
C 	 -2.525703	  3.433865	  0.389880
C 	 -3.029051	  2.147241	  0.613937
C 	 -2.194156	  1.039394	  0.472280
C 	 -0.838015	  1.195599	  0.116141
C 	 -0.345097	  2.498382	 -0.108803
C 	 -1.182524	  3.603611	  0.026304
H 	 -4.070088	  2.009165	  0.896546
H 	 -2.585726	  0.038119	  0.642634
H 	  0.691287	  2.646445	 -0.400432
H 	 -0.790324	  4.601880	 -0.153332
H 	 -3.175123	  4.299897	  0.494728
B 	  4.620313	  0.162747	 -0.183655
F 	  4.320375	  0.848629	  0.950312
F 	  4.177364	  0.707635	 -1.349524
F 	  5.766426	 -0.538460	 -0.213535
