28

H 	2.132506637	0.194050137	-0.160776929
C 	0.000000000	0.000000000	0.000000000
C 	1.292954264	-0.476520336	0.000000000
C 	1.653232894	-1.873412954	0.000000000
O 	2.764553914	-2.284837099	-0.494835188
H 	-0.818814185	-0.688190174	0.206308163
H 	0.454739926	-0.375722135	-2.696020937
H 	-1.147162700	0.556913206	-2.429012215
H 	-1.086519013	-1.285839460	-2.188808514
C 	-0.558585019	-0.344784579	-2.307975990
N 	0.821955874	-2.813906911	0.506886777
H 	0.032777680	-2.562230196	1.085694080
H 	1.120185151	-3.782346876	0.478858762
C 	-1.145871306	4.121623553	0.260201116
C 	0.170811273	3.789567301	-0.086531818
C 	0.561863404	2.454884674	-0.178608462
C 	-0.363562243	1.421822841	0.076215227
C 	-1.687383083	1.769043056	0.414330688
C 	-2.075124927	3.105696498	0.510880979
H 	0.894282566	4.575851592	-0.289191341
H 	1.583323747	2.216821270	-0.462582676
H 	-2.413354350	0.979468297	0.602415172
H 	-3.099383498	3.355112861	0.778568650
H 	-1.445153967	5.164857865	0.329672332
Al	3.788839810	-1.371550907	-1.761855214
F 	4.255193267	0.061940406	-0.993244512
F 	2.653955480	-1.063551121	-2.981232836
F 	5.026370420	-2.426055234	-2.159680215
