28

H 	1.450598279	2.230337803	-0.806727985
C 	3.269794092	1.098086156	-0.666649324
C 	1.900737057	1.253814668	-0.651358060
C 	0.963318245	0.237841975	-0.238859411
O 	-0.190074289	0.536784268	0.240186797
H 	3.691364222	0.100367369	-0.550626525
H 	2.828344503	1.886329353	1.941085198
H 	4.662018711	1.890292109	1.560536178
H 	3.785500267	0.291151418	1.923272077
C 	3.731737181	1.346558744	1.674828148
N 	1.270435339	-1.077886201	-0.322662926
H 	2.060584948	-1.400683168	-0.863613014
H 	0.578455014	-1.752001190	-0.015523790
C 	6.097304065	3.972591495	-2.119547392
C 	4.787424097	4.376335091	-1.827411000
C 	3.854261252	3.456714470	-1.351719278
C 	4.217401558	2.107875910	-1.158514349
C 	5.540772403	1.716677682	-1.446679424
C 	6.471615040	2.637864514	-1.927569150
H 	4.494317293	5.414100326	-1.968323380
H 	2.847403107	3.791353487	-1.117304743
H 	5.835385411	0.679989854	-1.290731109
H 	7.486770317	2.317022880	-2.150035417
H 	6.821099550	4.694978270	-2.489698219
Al	-0.645142385	2.168546742	1.026861615
F 	-0.470446918	3.311234198	-0.208813170
F 	0.567563868	2.350079829	2.195663299
F 	-2.199267175	1.950080799	1.608836604
