30

H 	2.109907249	0.750940992	0.104764376
C 	0.000000000	0.000000000	0.000000000
C 	1.488322696	-0.132142569	0.000000000
C 	2.181723268	-1.382678117	0.000000000
O 	3.436265501	-1.533214258	0.104435676
H 	-0.438531193	-0.836803710	-0.556139953
H 	-1.557512221	1.403005875	-0.585958819
H 	-0.148994447	1.390476783	-1.675491028
C 	-0.465583281	1.329006552	-0.628035219
H 	-0.044437021	2.188369370	-0.094749104
O 	1.406252395	-2.475701320	-0.130214266
C 	2.089982424	-3.768158900	-0.105342665
H 	2.621653274	-3.888723239	0.842519928
H 	2.799782732	-3.831527339	-0.934628294
H 	1.293288525	-4.505033891	-0.208904351
C 	-1.223577303	-0.470896090	4.149258102
C 	-0.429171665	0.617704950	3.772389922
C 	-0.034767261	0.770903592	2.441290611
C 	-0.439786808	-0.158813629	1.466868541
C 	-1.221712169	-1.256663478	1.855674505
C 	-1.620563194	-1.407081103	3.186669136
H 	-0.108907180	1.343546807	4.516347098
H 	0.593133391	1.613582596	2.162630677
H 	-1.522823299	-1.990110058	1.110595554
H 	-2.240199090	-2.254342004	3.472829586
H 	-1.528096783	-0.591707837	5.186402170
B 	4.545262050	-0.273996215	0.326196397
F 	4.137007806	0.338569888	1.499055677
F 	4.391757770	0.522896563	-0.795524559
F 	5.731444801	-0.947358174	0.403822245
