61

C 	-2.45515700	-0.18252700	2.48388300
C 	-1.18771600	-0.43476100	2.07388900
C 	-0.49442800	-1.66130100	2.44876400
O 	0.62680300	-1.98454400	2.06023000
H 	-0.64830900	0.08373600	-2.60629600
H 	-2.93118400	-0.93643900	3.11469100
H 	-0.64194900	0.24936400	1.43061000
C 	-1.69265100	-2.41278900	-1.94538500
H 	-1.60952300	-3.45348500	-1.61607100
H 	-2.71420400	-2.27342100	-2.31563800
H 	-1.57700400	-1.76660000	-1.07122200
H 	2.27931600	-3.77400200	-2.03813200
H 	0.65027100	-4.17743000	-1.48946800
H 	1.08787700	-4.37601900	-3.19144900
H 	5.51021400	0.71198200	1.48956100
H 	4.41306700	-0.53940700	2.09158200
H 	5.29548900	-0.80282800	0.58307500
N 	2.67337000	-0.43156900	-0.03457800
C 	2.27954400	-0.66164500	-1.34207400
N 	1.13822600	-1.45998200	-1.41238900
C 	3.64347100	0.58400300	0.36825100
H 	2.12612200	-0.85272500	0.70451700
C 	0.81518400	-2.27692800	-2.58587900
H 	0.86729500	-1.88084300	-0.53391800
H 	4.06206000	0.96444800	-0.56590500
C 	1.22139800	-3.73796900	-2.31482900
C 	4.78301100	-0.04788800	1.18595100
H 	3.11746200	3.07673200	-0.60143600
H 	1.44967400	-1.89119200	-3.38859500
C 	2.95973100	1.75220900	1.08890200
C 	2.49015000	1.64363500	2.40644000
C 	1.84632600	2.71049400	3.03167300
C 	1.66180500	3.91604000	2.35413800
C 	2.12518100	4.04017100	1.04508400
C 	2.76500000	2.96795200	0.42187000
H 	2.62117100	0.71801600	2.96128900
H 	1.49166500	2.60105700	4.05494100
H 	1.16571200	4.75107000	2.84445400
H 	1.99270600	4.97579800	0.50555400
C 	-0.67514400	-2.06266100	-3.05192900
C 	-0.96594000	-2.93517500	-4.29184700
H 	-1.93941900	-2.67051600	-4.71785600
H 	-0.99745100	-4.00167900	-4.05221300
H 	-0.21355300	-2.78573200	-5.07408700
C 	-0.85898300	-0.58230400	-3.44640800
H 	-0.18804100	-0.30403500	-4.26550700
H 	-1.88717700	-0.39951300	-3.77682000
C 	-2.94683500	2.16443500	3.16105100
C 	-3.19032600	1.10852000	2.07851300
C 	-4.68532800	0.79718900	1.95945400
C 	-2.63201200	1.58127300	0.73280800
H 	-2.78523200	0.81704200	-0.02997200
H 	-3.45409500	3.09695100	2.90800800
H 	-1.87958600	2.36577200	3.26005800
H 	-3.32363200	1.81434500	4.12272700
H 	-5.24146200	1.69126800	1.67263100
H 	-5.07410500	0.43767700	2.91284900
H 	-4.85269800	0.02755400	1.20512700
H 	-3.13042100	2.49739500	0.41150000
H 	-1.56259300	1.77859100	0.81508100
H 	-1.03642000	-2.30657900	3.10812900
