12
C4H7O optimized with ADF in AMS.
C        0.81626567998602      -0.23843506587156       0.88451669837521
C        0.81619348873656      -0.23410336151437      -0.47463522499072
C       -1.53109104391388      -0.47042250401638      -1.30820450163305
H        0.85486119296821      -1.16912493332259       1.44858320235650
C        0.73951515052880       0.99457588518230       1.66652138709613
H       -1.75169601764450      -1.42486233987661      -0.84565115125139
H        0.86486097980474       0.70298785054906      -1.02373602785769
H       -1.29504427054934      -0.45111997193178      -2.36632047580838
H       -1.93507111236184       0.42547805377368      -0.85281458930912
O        0.73118834700135       1.04615047156436       2.88853717656552
H        0.99579672792032      -1.14101846171991      -1.04244241154798
H        0.69379977752355       1.93215533718379       1.05950034800495
