24

H 	-1.495012795	-1.527358810	0.079509213
C 	0.000000000	0.000000000	0.000000000
C 	-1.267967855	-0.472060501	0.000000000
C 	-2.440537603	0.410152813	0.000000000
O 	-3.555500658	0.085601719	0.513076854
H 	0.148962508	1.081397305	0.027179159
C 	2.460325271	-0.036956889	0.217666627
C 	3.691761878	-0.682065088	0.285728897
C 	3.752588887	-2.076966425	0.174883951
C 	2.579891348	-2.816713925	-0.005835366
C 	1.362725009	-2.151022728	-0.068579365
C 	1.248394530	-0.748831803	0.044499718
H 	2.411089404	1.046443288	0.307843002
H 	4.601171074	-0.103690570	0.425368575
H 	4.708823381	-2.591433873	0.227494221
H 	2.593532800	-3.899134160	-0.098916606
F 	0.241581989	-2.903297326	-0.260518225
N 	-2.360474277	1.631414946	-0.575774195
H 	-3.184197697	2.222739625	-0.566237641
H 	-1.582754088	1.881448060	-1.170192578
B 	-3.811902075	-1.304621905	1.414061394
F 	-3.631921873	-2.348057118	0.516859783
F 	-5.098632327	-1.138910748	1.850068985
F 	-2.847325783	-1.261219376	2.408149839
