24

H 	2.193729180	0.917756670	0.319087000
C 	4.087626700	-0.075462430	0.391987160
C 	2.736134700	-0.016351920	0.400855820
C 	1.896257670	-1.220773600	0.404459260
O 	0.757435300	-1.285225970	-0.155648630
H 	4.561977730	-1.058666760	0.353864830
C 	6.391770470	0.746249840	0.031102250
C 	7.352459380	1.750127570	-0.058892070
C 	6.987896060	3.083004580	0.172047730
C 	5.664105090	3.402326830	0.494067270
C 	4.720517360	2.385171980	0.569161470
C 	5.037727750	1.029006150	0.337654650
H 	6.672830600	-0.289670870	-0.150283130
H 	8.380685670	1.498269960	-0.306859480
H 	7.730632410	3.874821660	0.105777500
H 	5.354435190	4.426187530	0.685704190
F 	3.438740780	2.730460650	0.900455830
N 	2.339532250	-2.332512510	1.035918040
H 	1.751252390	-3.159096690	1.031957440
H 	3.132078020	-2.295813510	1.662754030
B 	0.132303990	-0.100022410	-1.164819000
F 	-0.005191480	1.025074780	-0.359094690
F 	-1.052255510	-0.653589540	-1.574684200
F 	1.090241430	0.044081110	-2.158493420
