24

H 	2.196513946	0.894494508	0.286549733
C 	4.099266303	-0.079207398	0.361702722
C 	2.747026224	-0.034201964	0.363910801
C 	1.915273106	-1.243088552	0.363571924
O 	0.754143897	-1.288669789	-0.147725637
H 	4.583855169	-1.057299598	0.332412029
C 	6.420179464	0.737374345	0.141472460
C 	7.382933421	1.740212724	0.073258212
C 	6.997861677	3.082084399	0.186556166
C 	5.651248789	3.410926483	0.369864562
C 	4.708553890	2.393108970	0.432708132
C 	5.045202316	1.027338829	0.317220098
H 	6.717363495	-0.305465489	0.049393009
H 	8.428708203	1.480732287	-0.068397765
H 	7.741163546	3.873635811	0.133852305
H 	5.320628271	4.441530640	0.464885165
F 	3.406867416	2.750184775	0.627203536
N 	2.379897262	-2.376512335	0.937054427
H 	1.786554527	-3.198781118	0.927331152
H 	3.197704482	-2.367467715	1.530188484
B 	0.068140884	-0.050576170	-1.045924172
F 	-0.091094240	0.994775384	-0.147033217
F 	-1.100069314	-0.615694273	-1.480854067
F 	0.995000396	0.215918350	-2.041120210
