27

H 	1.449587105	-1.569700832	-0.109661543
C 	0.000000000	0.000000000	0.000000000
C 	0.403638709	-1.305372253	-0.000000000
C 	-0.495295303	-2.420905316	-0.000000000
O 	-0.237895869	-3.613270412	-0.131303685
H 	-1.058290824	0.212253319	0.140375074
H 	0.271610232	-0.463083891	-2.812664280
H 	-0.883149066	1.007696301	-2.688274420
H 	-1.500494892	-0.703139552	-2.293055566
C 	-0.669607949	-0.035545467	-2.488884840
F 	-1.824688383	-2.093598073	0.158078855
C 	1.063160931	1.381913662	1.712863851
C 	0.935840369	1.180091951	0.167306511
C 	0.325805413	2.464681320	-0.440766557
C 	2.334176309	0.927386160	-0.434789157
H 	2.268636123	0.698683009	-1.503795588
H 	1.707869546	2.246296654	1.911375541
H 	1.503320693	0.498520363	2.186857633
H 	0.085969288	1.570617215	2.172436421
H 	0.911962669	3.336936144	-0.130218220
H 	-0.707476488	2.612851858	-0.104196308
H 	0.331237198	2.428443670	-1.533833324
H 	2.954683284	1.822257590	-0.312676593
H 	2.852013941	0.098900006	0.060015634
Zn	1.521162595	-4.507102750	-1.032019184
Cl	1.846989812	-6.342156580	-0.000923872
Cl	2.088999623	-3.054063502	-2.520644995
