27

H 	1.607397401	2.533569468	-0.502893601
C 	3.302250373	1.227969453	-0.489811792
C 	1.968170900	1.514441437	-0.418490775
C 	0.959138551	0.550952213	-0.092855078
O 	-0.234623796	0.733821613	0.123292765
H 	3.609735479	0.185782200	-0.426292181
H 	3.096081705	2.082207177	2.235453618
H 	4.660533300	1.051711644	2.183430461
H 	2.993402192	0.225365294	2.137618831
C 	3.585942278	1.130223253	2.070295748
F 	1.407252441	-0.749226804	-0.002669813
C 	4.386647308	1.990184101	-2.543348065
C 	4.354578011	2.195185859	-0.993304240
C 	5.750505999	1.842277356	-0.428586622
C 	4.017314273	3.667489400	-0.676605226
H 	3.904593090	3.823950190	0.401443638
H 	5.154162007	2.642083198	-2.977125426
H 	3.418942592	2.240468286	-2.990225958
H 	4.630441425	0.953617462	-2.803758349
H 	6.520799002	2.412926777	-0.959488690
H 	5.972377001	0.775402362	-0.552910927
H 	5.823137848	2.088624657	0.634510386
H 	4.825166805	4.315400345	-1.034824368
H 	3.093676501	3.993027222	-1.166804465
Zn	-1.214435221	2.571315644	0.730002410
Cl	-3.167269551	2.509173217	-0.118124867
Cl	0.311934825	3.572788506	1.877615297
