26

H 	2.407086670	0.576032280	-0.372760360
C 	4.230480010	-0.306945550	0.278188120
C 	2.927943650	-0.320555290	-0.047847660
C 	2.067695390	-1.515531020	-0.011249720
O 	0.871194470	-1.517963100	-0.323313850
H 	4.695541620	-1.242089630	0.596073060
C 	4.465224800	2.179139080	-0.225292770
C 	5.155749630	0.889021160	0.260462120
C 	6.350067560	0.549568370	-0.675699080
C 	5.689918170	1.091576460	1.707328850
H 	6.193935890	0.188742090	2.073602450
H 	5.180910540	3.009492640	-0.218240960
H 	3.625184160	2.454183220	0.423566150
H 	4.085939880	2.069532920	-1.248268680
H 	7.077316760	1.370962250	-0.665631830
H 	6.008805170	0.402876360	-1.707397600
H 	6.862182140	-0.364234660	-0.349681580
H 	6.411687430	1.917513820	1.725916920
H 	4.871347140	1.331695030	2.396007730
O 	2.697295120	-2.649838420	0.400323500
C 	1.870277830	-3.852674080	0.444413620
H 	1.489664660	-4.085778630	-0.554819230
H 	1.029728470	-3.708423000	1.129894580
H 	2.536892790	-4.638947950	0.802081650
I 	-0.475587140	0.716918360	-1.256141080
I 	-1.828880340	2.947471740	-2.204800120
