28

H 	2.007921414	0.949024386	0.006464874
C 	0.000000000	0.000000000	0.000000000
C 	1.478463038	-0.000000000	0.000000000
C 	2.248291120	-1.185162681	0.000000000
O 	3.518486567	-1.250740084	0.072398156
H 	-0.359329593	-1.032676750	-0.117062028
H 	-1.602648519	0.805765399	-1.256106070
H 	-0.115337441	0.431671501	-2.142186232
C 	-0.510710574	0.837495378	-1.205380889
H 	-0.191152251	1.881322452	-1.130020755
H 	1.723960123	-2.148617435	-0.062726090
C 	-0.029811227	-0.451232254	2.507845741
C 	-0.572485852	0.494251651	1.411569572
C 	-2.111324393	0.397137187	1.384002611
C 	-0.143478366	1.942539236	1.725101360
H 	-0.500481121	2.648732784	0.967767784
H 	-0.462631053	-0.189222338	3.480101877
H 	1.060191083	-0.378808951	2.597639979
H 	-0.289918194	-1.496360259	2.296212336
H 	-2.508321111	0.608229421	2.384556366
H 	-2.443705432	-0.608641848	1.097442922
H 	-2.560121653	1.119125798	0.694352550
H 	-0.572320070	2.248688467	2.686733598
H 	0.944543252	2.038753802	1.804852768
B 	4.514555574	0.122796879	0.262054807
F 	4.028751436	0.716099621	1.416889699
F 	4.281137412	0.863531319	-0.882484088
F 	5.755745271	-0.427014351	0.365675715
