28

H 	0.623919148	-1.757821102	0.176612877
C 	-0.654319081	-0.048449207	0.796438450
C 	0.539259550	-0.673827475	0.182520836
C 	1.591316893	0.068623571	-0.399643884
O 	2.616851925	-0.418608486	-0.980941732
H 	-0.527771078	1.044391590	0.799673878
H 	-1.617133804	-0.034328147	2.763810847
H 	0.136245263	-0.284178023	2.825756111
C 	-0.775431468	-0.530531521	2.271309719
H 	-0.922036767	-1.613912361	2.327058087
H 	1.541011819	1.165669417	-0.361798153
C 	-1.741889366	0.277853832	-1.482550780
C 	-1.966249645	-0.328341924	-0.077831019
C 	-3.169832744	0.376796106	0.583932874
C 	-2.252022850	-1.839772147	-0.207226644
H 	-2.404243915	-2.312665901	0.769398707
H 	-2.645980644	0.162594956	-2.092326513
H 	-0.918306567	-0.219609927	-2.008871790
H 	-1.514329256	1.350150039	-1.420446094
H 	-4.041924430	0.306049378	-0.078612292
H 	-2.966360998	1.441569897	0.756366295
H 	-3.445770328	-0.082443789	1.539052552
H 	-3.168870220	-1.989257856	-0.790521625
H 	-1.442792460	-2.365686781	-0.725762641
B 	2.843624587	-2.092922354	-1.226605534
F 	1.731355268	-2.455438388	-1.974067714
F 	2.851637772	-2.626028662	0.052156833
F 	4.035420417	-2.137343085	-1.887717610
