22

H 	  1.917279	  0.926267	  0.004472
C 	  0.000000	  0.000000	  0.000000
C 	  1.343536	  0.000000	  0.000000
C 	  2.206391	 -1.177837	  0.000000
O 	  3.412570	 -1.174716	  0.017101
H 	 -0.514233	 -0.962630	 -0.001810
C 	 -1.821944	  1.107683	 -1.242623
C 	 -0.899800	  1.208201	  0.005694
C 	 -0.127378	  2.541380	 -0.019795
C 	 -1.774709	  1.127428	  1.289779
H 	 -1.154812	  1.194452	  2.190731
H 	 -2.536201	  1.939536	 -1.240612
H 	 -2.388430	  0.169158	 -1.243274
H 	 -1.236275	  1.157223	 -2.167462
H 	 -0.833100	  3.379582	 -0.017898
H 	  0.493876	  2.627243	 -0.918723
H 	  0.521220	  2.647116	  0.857415
H 	 -2.490990	  1.957527	  1.299352
H 	 -2.338162	  0.187895	  1.327838
I 	  1.204950	 -3.204938	 -0.036636
I 	  4.924314	  1.283333	  0.161299
I 	  6.267830	  3.693578	  0.314138
