22

H 	1.917279148	0.926266590	0.004472381
C 	0.000000000	0.000000000	0.000000000
C 	1.343535555	-0.000000000	0.000000000
C 	2.206391040	-1.177836754	0.000000000
O 	3.412569934	-1.174716085	0.017100980
H 	-0.514232881	-0.962630449	-0.001810284
C 	-1.821944480	1.107683061	-1.242623165
C 	-0.899799582	1.208200681	0.005694189
C 	-0.127378056	2.541380097	-0.019794844
C 	-1.774708543	1.127427582	1.289778753
H 	-1.154811836	1.194452483	2.190730985
H 	-2.536200923	1.939535784	-1.240611545
H 	-2.388430084	0.169158463	-1.243274258
H 	-1.236274698	1.157222963	-2.167462429
H 	-0.833099979	3.379581729	-0.017897558
H 	0.493875836	2.627242623	-0.918722836
H 	0.521220001	2.647115990	0.857415138
H 	-2.490989871	1.957527062	1.299352109
H 	-2.338161694	0.187895415	1.327838111
I 	1.204949539	-3.204937665	-0.036636486
I 	4.924313721	1.283332920	0.161298733
I 	6.267830401	3.693577665	0.314137614
