23

H 	2.469252863	0.660202742	-0.082383470
C 	4.286038580	-0.426295662	0.214898368
C 	2.914346105	-0.293129687	0.205009359
C 	2.007438652	-1.333679082	0.518039019
O 	0.740713783	-1.145255057	0.472240220
H 	4.764404334	-1.362359863	0.497479321
C 	6.598206298	0.451072493	-0.079636229
H 	7.020546572	1.121720026	0.679162638
H 	7.024251135	0.708133878	-1.056556442
H 	6.877700979	-0.577248068	0.165026093
N 	5.140157453	0.555524404	-0.114242534
H 	4.741841423	1.451247163	-0.386276252
C 	2.063887516	-3.736513073	-0.250576962
C 	2.420878816	-2.744147433	0.882739637
H 	2.621596424	-3.502040126	-1.165141369
H 	0.994734063	-3.687413491	-0.476542717
H 	2.312068568	-4.759490142	0.051958100
H 	3.487742038	-2.807069637	1.118371332
H 	1.866011938	-3.012051847	1.790599401
Al	-0.393294354	0.286549196	0.140121414
F 	0.590220176	1.500763752	-0.529880716
F 	-0.976697853	0.695233389	1.663011298
F 	-1.514974409	-0.336693097	-0.943413427
