42
C19H21BO optimized with ADF in AMS.
 B        0.10498411768584       0.26779081930469      -0.56514546758651
 C       -1.11303479261220      -0.30781615372470       0.25283347086009
 C       -0.73041114077159      -0.03170181259584       1.73588619585359
 C        0.80336054060559      -0.10985139113362       1.77020803114406
 C        1.27836153172349       0.56367569559410       0.45019147895400
 C       -2.53381331254969      -0.04458280571982      -0.17619286064420
 C       -3.07204936949312       1.25181200983537      -0.16874000632937
 C       -4.38154180361685       1.49455671888961      -0.57933359905749
 C       -5.19018432347916       0.44464500151135      -1.01593029551643
 C       -4.67325369399111      -0.84976057174598      -1.03234179354252
 C       -3.36431632171431      -1.08808183216853      -0.61292616496746
 H       -2.45921807694547       2.08823004493348       0.16126847241302
 H       -4.77083384962213       2.51057121417277      -0.56289911522947
 H       -6.21135096940726       0.63431782064228      -1.33865635664048
 H       -5.29124999121467      -1.68024253269265      -1.36848841722552
 H       -2.97898027051887      -2.10605619750503      -0.62565446985241
 C        2.71839433108730       0.36667585765662       0.04125629452458
 C        3.59130708970192       1.45344967188112      -0.10906322564512
 C        4.91637764782542       1.27160445043510      -0.50642477694849
 C        5.40406228730073      -0.00945243598342      -0.76004876619756
 C        4.55118520823655      -1.10293920422391      -0.60872820538553
 C        3.22804958654807      -0.91747705475953      -0.21290598465804
 H        3.22998237571864       2.46125743119380       0.08841283530346
 H        5.56978077581484       2.13512004871532      -0.61360899307188
 H        6.43658359587176      -0.15487177637414      -1.06982058546841
 H        4.91749666924846      -2.10948560154563      -0.80316602387685
 H        2.58056674400776      -1.78163610410917      -0.10355434866709
 H        0.13598402305434       0.46701483962503      -1.74851601686372
 H       -0.91409236042246      -1.38446611280242       0.09204420409788
 H       -1.20388270073807      -0.73807828323359       2.42770364663775
 H       -1.06395055659913       0.97196004829664       2.02650649619347
 H        1.12008849079962      -1.15871662100123       1.77806706495952
 H        1.23327753051116       0.36149379310006       2.66139719997579
 H        1.11844980991591       1.65417825512429       0.58756236882309
 H        0.47507512314017      -5.00628825860811      -3.71887109078336
 C       -0.29665871343307      -3.03804447518353      -3.74604561155861
 C        0.28490077640185      -4.09160676352236      -3.15689333979922
 C        0.72155209730221      -4.10422672108515      -1.73859210374407
 O        0.57257117295889      -3.19547055320248      -0.93856348242739
 H       -0.48336743968534      -2.11888951640398      -3.19755727175297
 H        1.22777346072314      -5.04734589775963      -1.42506237878733
 H       -0.59522101226088      -3.06827255685554      -4.79086962180467
