25

H 	  1.910604	  0.927415	  0.013518
C 	  0.000000	  0.000000	  0.000000
C 	  1.345874	 -0.000000	 -0.000000
C 	  2.197984	 -1.175851	 -0.000000
O 	  3.411864	 -1.180172	  0.052951
H 	 -0.517361	 -0.960143	 -0.007350
C 	 -0.108154	  2.540613	 -0.008091
C 	 -0.890738	  1.213202	  0.017077
C 	 -1.756467	  1.133607	  1.308113
C 	 -1.822829	  1.123398	 -1.224990
H 	 -2.397071	  0.189529	 -1.224539
H 	 -0.807855	  3.383629	  0.000735
H 	  0.508301	  2.624990	 -0.910363
H 	  0.545140	  2.638225	  0.866503
H 	 -2.466327	  1.969024	  1.324448
H 	 -1.129035	  1.194657	  2.204218
H 	 -2.326930	  0.198350	  1.348185
H 	 -2.530397	  1.960755	 -1.213620
H 	 -1.244030	  1.172499	 -2.154014
Br	  1.309188	 -2.963746	 -0.102769
Ti	  5.160408	  0.459385	  0.195147
Cl	  6.765289	  1.985872	  0.319780
Cl	  6.400713	 -1.374618	  0.224566
Cl	  4.262879	  1.088399	 -1.754525
Cl	  4.050885	  0.996619	  2.062023
