31

H 	1.909558234	0.910097619	0.191956725
C 	0.000000000	0.000000000	0.000000000
C 	1.349115691	0.000000000	0.000000000
C 	2.190448561	-1.204219849	0.000000000
O 	3.179579965	-1.283843801	0.805207782
H 	-0.526510390	-0.946738015	-0.124457633
C 	-0.358604309	2.416768384	0.618944902
C 	-1.209960358	3.502665328	0.796386427
C 	-2.574957229	3.328890250	0.562451850
C 	-3.115590376	2.107147904	0.171353341
C 	-2.249518582	1.026978829	0.003071344
C 	-0.859735465	1.160874293	0.207613779
H 	0.700811930	2.540912139	0.825402353
H 	-0.837063252	4.469758578	1.122161071
F 	-3.411399744	4.394724163	0.735384138
H 	-4.186038199	2.012847440	0.012061349
H 	-2.653916461	0.061851845	-0.295674770
N 	1.960942678	-2.245827927	-0.831339460
C 	2.735752253	-3.488331204	-0.670673988
C 	1.106134362	-2.185385228	-2.024426448
H 	3.140234978	-3.537170213	0.339334855
H 	3.564578927	-3.518466463	-1.389958430
H 	2.071224038	-4.338897113	-0.856031372
H 	0.212652663	-2.809029346	-1.893561226
H 	1.672499503	-2.566356899	-2.882817130
H 	0.805002768	-1.157827604	-2.223101788
Sn	3.414760885	-0.505533911	2.946200845
Cl	3.690391184	1.666340397	1.968702400
Cl	5.249233106	-2.006375822	2.885608694
Cl	3.689461536	0.236607951	5.213271384
Cl	1.224868347	-1.419731094	3.252987505
