31

H 	2.667178112	0.124141075	1.426244082
C 	4.127362296	-0.226810372	-0.075832128
C 	3.012705695	-0.521796214	0.624622842
C 	2.032270688	-1.550246282	0.251763492
O 	0.784619930	-1.276002291	0.286952962
H 	4.401673823	-0.860061906	-0.920084130
C 	4.679898114	1.966395176	1.036378670
C 	5.549887481	3.034459017	1.230859832
C 	6.756060000	3.052321330	0.528742737
C 	7.113167060	2.048379860	-0.367065654
C 	6.227694899	0.987330234	-0.554887802
C 	5.006617735	0.916138288	0.148791798
H 	3.728485023	1.961899109	1.560966159
H 	5.304420133	3.852172481	1.902827984
F 	7.611278825	4.099994917	0.719856324
H 	8.056658439	2.108219563	-0.902199548
H 	6.485839809	0.196223006	-1.256149195
N 	2.400012597	-2.794608602	-0.129122245
C 	1.383351234	-3.726344285	-0.647027597
C 	3.730389577	-3.374861368	0.097176127
H 	0.521361959	-3.163713789	-1.002739278
H 	1.059060075	-4.416757172	0.142527459
H 	1.825607528	-4.303297049	-1.466144410
H 	4.253948976	-3.528051777	-0.855076724
H 	3.610923103	-4.348307878	0.587964374
H 	4.324192563	-2.723223211	0.736544977
Sn	-0.319575396	0.671112871	-0.197219394
Cl	0.466888741	1.470669715	1.921906910
Cl	-2.159863826	-0.823616132	-0.221915171
Cl	-1.529431588	2.669770482	-0.751709763
Cl	1.116338815	0.716994055	-2.110736881
