18

H 	0.178650526	-1.464184236	1.006251091
C 	-0.871536397	-0.304231855	-0.467782605
C 	0.216677196	-0.702129419	0.231412629
C 	1.531590183	-0.113081658	-0.023834242
O 	2.556936116	-0.418832891	0.565442491
H 	-0.709129468	0.470024315	-1.220429868
C 	-4.948255995	-1.578051581	-0.235975172
C 	-3.999113254	-2.149027186	0.617966797
C 	-2.669374581	-1.750057729	0.560062969
C 	-2.250688331	-0.765014692	-0.358220224
C 	-3.221830046	-0.201542899	-1.210184749
C 	-4.553935137	-0.601699524	-1.151057295
H 	-4.301481930	-2.910125052	1.333253121
H 	-1.951035725	-2.207534420	1.233229810
H 	-2.920899535	0.559913396	-1.926138973
H 	-5.284281708	-0.152055426	-1.819253924
H 	-5.987450796	-1.893757028	-0.185830171
H 	1.547871763	0.666365664	-0.823935253
