29

H 	1.800286305	2.081678558	1.256561279
C 	3.601313235	1.137033474	0.337966259
C 	2.133450133	1.308524813	0.570597593
C 	1.120874071	0.580987763	-0.121951600
O 	-0.119447867	0.872700646	-0.003686718
H 	3.833180041	0.064621258	0.259119018
H 	5.510591805	1.604432109	1.282458890
H 	4.197013050	1.266837970	2.436009473
C 	4.442982720	1.744407222	1.480607272
H 	4.249698330	2.818895856	1.572176206
C 	1.457497662	-0.568173664	-1.036300439
H 	0.536749485	-1.038841748	-1.385934425
H 	2.082935441	-1.308861991	-0.523472536
H 	2.030836066	-0.202071664	-1.897929053
C 	3.496659547	3.056441328	-1.343754615
C 	3.816909383	3.627535663	-2.579071821
C 	4.583603804	2.923183330	-3.512686392
C 	5.011706854	1.641012565	-3.174699440
C 	4.703653672	1.042662392	-1.956847627
C 	3.945233825	1.762355728	-1.023181283
H 	2.890376824	3.613903943	-0.634859705
H 	3.461319185	4.626037053	-2.820487803
H 	4.844725328	3.344723287	-4.479254423
F 	5.763066777	0.937080166	-4.076513372
H 	5.060707553	0.037840697	-1.745658714
B 	-0.725485190	2.184845811	0.846397384
F 	-0.367089355	1.951746320	2.165886590
F 	-2.064533487	2.117159123	0.588836557
F 	-0.078952958	3.283741234	0.289379526
