37

H 	1.987946234	0.947284159	0.186040160
C 	0.000000000	0.000000000	0.000000000
C 	1.489924009	-0.000000000	0.000000000
C 	2.389176526	-1.125198168	0.000000000
O 	3.516391980	-1.037486580	0.601834911
H 	-0.380663322	-0.995251618	-0.251312907
H 	-1.604302371	1.031471962	-1.088376718
H 	-0.158303739	0.721027174	-2.061784989
C 	-0.511106331	1.005427087	-1.063751980
H 	-0.142728497	2.016403834	-0.862272913
N 	2.081100561	-2.328622562	-0.565102547
C 	2.987995930	-3.464229502	-0.338051734
C 	1.100853044	-2.500554036	-1.643205844
H 	3.449891717	-3.376549992	0.645264154
H 	3.783939939	-3.484541477	-1.095275457
H 	2.406161361	-4.389154598	-0.403984478
H 	0.242224000	-3.097287262	-1.309874816
H 	1.586928947	-3.026661928	-2.474129113
H 	0.757132279	-1.534097818	-2.009081277
C 	-0.186271116	1.673880105	1.987056570
C 	-0.572401083	0.274085809	1.467068105
C 	-0.005359102	-0.807519456	2.416053924
C 	-2.109951776	0.140544398	1.427420490
H 	-2.416782400	-0.827858048	1.010642912
H 	-0.606743659	1.821202750	2.989198575
H 	-0.581390595	2.469436392	1.345535979
H 	0.898345024	1.793316911	2.068517769
H 	-0.467219691	-0.718494400	3.406319587
H 	1.076511200	-0.704302810	2.545265203
H 	-0.218369723	-1.815730839	2.036345884
H 	-2.510232646	0.207232587	2.446410446
H 	-2.581969159	0.933801754	0.838280586
Ti	4.944167771	0.263008773	1.348936117
Cl	6.480280270	1.726263622	2.110477153
Cl	4.744540771	1.305104495	-0.662046796
Cl	3.455797971	0.727315280	2.992802935
Cl	6.249962924	-1.556052439	1.568579753
