25

H 	  1.909943	  0.928233	  0.002692
C 	  0.000000	  0.000000	  0.000000
C 	  1.345232	  0.000000	 -0.000000
C 	  2.199441	 -1.176604	 -0.000000
O 	  3.415087	 -1.168079	  0.008081
H 	 -0.516700	 -0.961368	 -0.003247
C 	 -0.116018	  2.539717	  0.011451
C 	 -0.894718	  1.209844	  0.005656
C 	 -1.792223	  1.115160	  1.273396
C 	 -1.795198	  1.127032	 -1.260527
H 	 -2.361601	  0.188731	 -1.285237
H 	 -0.818174	  3.380735	  0.017946
H 	  0.516915	  2.637399	 -0.878022
H 	  0.520881	  2.627050	  0.899199
H 	 -2.504524	  1.948558	  1.280859
H 	 -1.187959	  1.167841	  2.185872
H 	 -2.360752	  0.177932	  1.288961
H 	 -2.509564	  1.958740	 -1.256965
H 	 -1.193502	  1.191422	 -2.173920
I 	  1.240836	 -3.184871	 -0.012840
Ti	  5.167196	  0.493248	  0.066905
Cl	  6.762825	  2.032792	  0.124076
Cl	  6.416162	 -1.334480	  0.056777
Cl	  4.191961	  1.096464	 -1.852913
Cl	  4.120422	  1.028823	  1.968506
