25

H 	2.483019320	0.816817020	-0.068837160
C 	4.254624480	-0.198623510	0.516283320
C 	2.929056080	-0.101880900	0.303182340
C 	1.949282610	-1.159777380	0.499452000
O 	0.767465240	-1.089547070	0.217285280
H 	4.652520170	-1.148459760	0.878859570
C 	4.655631470	2.216133110	-0.177046180
C 	5.277558020	0.885406310	0.292965840
C 	6.282595660	0.364814810	-0.777269200
C 	6.034853610	1.097598850	1.636064490
H 	6.499500700	0.166204100	1.981650280
H 	5.443525100	2.965315230	-0.315531530
H 	3.945006250	2.608023590	0.560382560
H 	4.132208420	2.098414380	-1.133099310
H 	7.077184140	1.107020420	-0.922023830
H 	5.781998470	0.201003350	-1.738312810
H 	6.747199730	-0.577622930	-0.463173950
H 	6.826653360	1.843768440	1.496853220
H 	5.355787180	1.456060300	2.418245510
I 	2.623473440	-3.070568010	1.415583170
Ti	-0.731187410	0.514156580	-0.790775120
Cl	-2.111926280	1.999507470	-1.690772920
Cl	-2.115734640	-1.204380850	-0.599945440
Cl	-0.187552940	1.643788140	1.062514960
Cl	0.790052950	0.432597570	-2.430556920
