31

H 	1.634867910	2.153586220	-0.905343300
C 	3.488477040	1.134389200	-0.539013450
C 	2.120639710	1.239617180	-0.586384570
C 	1.216275130	0.195800910	-0.170328280
O 	-0.032547690	0.308643980	-0.137070390
H 	3.920663470	0.159351820	-0.326736200
H 	3.218860770	2.355789190	1.976922780
H 	4.930369140	1.625265800	1.818193630
H 	3.469911200	0.521259560	2.193834440
C 	3.857388530	1.485190910	1.883195260
O 	1.792011900	-0.964493680	0.219077310
C 	0.873137860	-2.015719880	0.663681070
H 	0.212924840	-2.306683870	-0.158152190
H 	0.273593040	-1.657009030	1.505071240
H 	1.519682360	-2.842186320	0.961189720
C 	5.765788240	1.784730270	-1.273453720
C 	6.684152790	2.712631890	-1.767819030
C 	6.290566540	4.029390320	-2.031911500
C 	4.961366530	4.380448910	-1.788332050
C 	4.024620060	3.480335850	-1.299532750
C 	4.423422400	2.150855840	-1.039197360
H 	6.081976990	0.763904310	-1.068059780
H 	7.714057090	2.413354630	-1.949173310
H 	6.986952340	4.771733630	-2.412163660
F 	4.568445460	5.669908430	-2.038351640
H 	3.008962120	3.819570260	-1.117708520
Ti	-1.500641430	1.902301670	-0.326728880
Cl	-2.991674380	3.569489790	-0.482093470
Cl	-0.752718200	2.069150630	-2.445766470
Cl	-2.963787600	0.282245520	0.165709010
Cl	-0.288251320	2.871621500	1.324311180
