31

H 	1.641955093	2.115603295	-1.019225834
C 	3.492120866	1.130051199	-0.548303555
C 	2.125930094	1.216244891	-0.658554156
C 	1.221919234	0.176312580	-0.239392740
O 	-0.025562772	0.293007517	-0.197952949
H 	3.923529871	0.165962202	-0.292177084
H 	3.016088827	2.387723824	1.883027904
H 	4.805762792	1.859523357	1.811688082
H 	3.470593712	0.607678555	2.183223094
C 	3.755084653	1.596611636	1.842308922
O 	1.794867002	-0.986971630	0.140100061
C 	0.877545896	-2.032054279	0.595906715
H 	0.196343632	-2.310010530	-0.212659500
H 	0.300006437	-1.675712530	1.453003199
H 	1.522372432	-2.866805610	0.872097033
C 	5.793453828	1.779082982	-1.194926335
C 	6.725976098	2.698704592	-1.676957354
C 	6.331518707	3.998924924	-2.008597564
C 	4.988443045	4.339525528	-1.846373832
C 	4.036759396	3.447036537	-1.375976658
C 	4.437664290	2.136663855	-1.043669402
H 	6.108906889	0.771235213	-0.934899848
H 	7.766857857	2.407330409	-1.794000159
H 	7.036093458	4.737738059	-2.379688485
F 	4.595228644	5.611296370	-2.159338699
H 	3.009785443	3.780161902	-1.261343031
Ti	-1.488526914	1.896941795	-0.217353081
Cl	-2.976014790	3.572912466	-0.198784866
Cl	-0.885898915	2.153711488	-2.370864082
Cl	-2.925057402	0.265143120	0.308276783
Cl	-0.164254563	2.790901722	1.389272544
