22

H 	2.366595338	0.711337308	0.159652212
C 	4.185637425	-0.367994136	0.389936592
C 	2.815426203	-0.267436584	0.329639568
C 	1.914030704	-1.357798622	0.463086621
O 	0.651587973	-1.202862281	0.374469016
H 	4.679344847	-1.322720056	0.563030591
C 	6.484334207	0.591750824	0.308568686
H 	6.872119143	1.223286341	1.117359477
H 	6.936693966	0.912174059	-0.638103524
H 	6.776544697	-0.443764809	0.503157812
N 	5.026761977	0.671970347	0.241373300
H 	4.614963455	1.586355128	0.072410946
C 	2.189772409	-3.623950411	-0.619239920
C 	2.369204717	-2.793847528	0.673132824
H 	2.817415239	-3.231230289	-1.428318284
H 	1.145996804	-3.593429215	-0.946420581
H 	2.469583380	-4.668290818	-0.442984766
H 	3.407843744	-2.845938003	1.016166009
H 	1.738361121	-3.213072842	1.466089218
Zn	-0.544784719	0.391728309	-0.037983833
Cl	-2.557666817	-0.349411750	-0.265058517
Cl	0.490057156	2.317514068	-0.144066835
