33

H 	0.472774008	-2.084984549	-0.043790748
C 	0.000000000	0.000000000	0.000000000
C 	-0.311719050	-1.338627725	-0.000000000
C 	-1.652816481	-1.856465440	-0.000000000
O 	-1.866802330	-3.094255130	-0.128545181
H 	-0.799292571	0.727229380	0.101657758
H 	-0.142627242	1.591124426	-2.331178121
H 	-1.178356670	0.064097138	-2.630546725
H 	0.676964483	-0.049724806	-2.700531004
C 	-0.210833647	0.515632702	-2.446351927
C 	-4.200751927	-1.691798882	0.161505037
C 	-2.861509959	-0.945821638	0.144061960
H 	-4.247668449	-2.393865965	0.999814720
H 	-4.342205419	-2.269004012	-0.757320824
H 	-5.025507285	-0.977497866	0.257612665
H 	-2.734384746	-0.348041169	1.057837691
H 	-2.832955816	-0.222684499	-0.685798514
C 	2.513510094	-0.267789765	0.175383906
C 	3.779434990	0.294400986	0.310382355
C 	3.928068882	1.685887308	0.401765135
C 	2.803921672	2.515629984	0.356221421
C 	1.553323616	1.929336844	0.219451130
C 	1.353039546	0.538177794	0.126992605
H 	2.413987871	-1.347124380	0.109373074
H 	4.654080992	-0.349598616	0.345738373
H 	4.916249859	2.125802885	0.510225935
H 	2.883882487	3.596906916	0.425037733
F 	0.457562050	2.753772969	0.162391858
Ti	-0.816348668	-4.896879482	-0.608746129
Cl	0.378114790	-6.726596263	-1.138730025
Cl	-0.185849274	-3.737462013	-2.455726921
Cl	0.224072028	-4.558502295	1.370477276
Cl	-2.824530959	-5.871466341	-0.590145022
