33

H 	1.666868500	2.223054633	-0.670468933
C 	3.507692127	1.135284417	-0.697260640
C 	2.141926797	1.251860630	-0.596325012
C 	1.253610949	0.151857775	-0.336350220
O 	0.023747915	0.350197495	-0.130109102
H 	3.955178005	0.146649841	-0.676680360
H 	5.181388926	0.893965722	1.567008604
H 	3.448700652	0.437464482	2.099518990
H 	3.893655134	2.224298932	1.836254924
C 	4.147806969	1.177313253	1.728322223
C 	0.644841440	-2.315199503	-0.039361904
C 	1.751214537	-1.283814941	-0.289441520
H 	-0.109596845	-2.280869443	-0.831515167
H 	0.133342626	-2.122283214	0.908566408
H 	1.072994882	-3.322871583	-0.008287320
H 	2.278503523	-1.495640907	-1.230496504
H 	2.519556145	-1.343183569	0.497030097
C 	3.979033702	3.546828605	-1.315722938
C 	4.875705623	4.540821357	-1.696257745
C 	6.235764780	4.240240384	-1.859252217
C 	6.697722084	2.939410657	-1.638590574
C 	5.782788350	1.967450365	-1.258287129
C 	4.407899871	2.219647222	-1.084896806
H 	2.928305581	3.793983275	-1.196936158
H 	4.517792683	5.552464561	-1.867918805
H 	6.936458058	5.015323846	-2.159361632
H 	7.744286320	2.672853991	-1.756658623
F 	6.249064287	0.696744528	-1.031268360
Ti	-1.340249588	1.964567376	0.211681914
Cl	-2.683246872	3.730414461	0.577238680
Cl	0.108779729	2.501864995	1.874433160
Cl	-0.882606084	2.515795991	-1.933314373
Cl	-2.861564397	0.375240906	0.589311733
