21

H 	  1.942705	  0.915953	  0.003036
C 	  0.000000	  0.000000	  0.000000
C 	  1.358900	 -0.000000	  0.000000
C 	  2.158102	 -1.195975	 -0.000000
O 	  3.378663	 -1.293913	 -0.026877
H 	 -0.514430	 -0.960564	 -0.004042
C 	 -2.593033	  3.387157	 -0.001689
C 	 -1.204063	  3.584085	  0.039409
C 	 -0.340150	  2.494155	  0.040414
C 	 -0.852806	  1.175337	  0.001908
C 	 -2.253993	  0.994300	 -0.036174
C 	 -3.116107	  2.089801	 -0.039370
H 	 -0.799473	  4.592900	  0.070791
H 	  0.732738	  2.662847	  0.074634
H 	 -2.656982	 -0.016233	 -0.064522
H 	 -4.191897	  1.934921	 -0.070217
H 	 -3.262655	  4.244201	 -0.002763
F 	  1.449565	 -2.373388	  0.039998
Zn	  5.000163	  0.168620	 -0.210494
Cl	  4.163438	  2.104884	  0.238477
Cl	  6.673422	 -1.017336	 -0.783909
