21

H 	-0.320404770	0.306718960	-0.040708150
C 	-0.077254970	-1.827070150	0.003267240
C 	0.352118350	-0.539121020	0.075168980
C 	1.720632960	-0.164238430	0.317531450
O 	2.197321860	0.963543370	0.377300860
H 	0.656336660	-2.621727240	0.137676150
C 	-4.046677090	-3.216903410	-0.723348680
C 	-3.801536510	-1.835341240	-0.671296410
C 	-2.516174960	-1.357303220	-0.433164210
C 	-1.442203170	-2.260868240	-0.242041120
C 	-1.706866290	-3.648927660	-0.295561750
C 	-2.996421320	-4.122983720	-0.534699670
H 	-4.619552990	-1.133528170	-0.818015840
H 	-2.343719490	-0.284678590	-0.394359590
H 	-0.887295000	-4.350007680	-0.148157420
H 	-3.183180740	-5.193743030	-0.574070810
H 	-5.054046930	-3.582643920	-0.911455950
F 	2.594072470	-1.213829730	0.504978390
Zn	1.325728060	2.953232440	0.079262050
Cl	-0.820660920	2.751784370	0.194651570
Cl	3.021740240	4.207184670	-0.224781780
