32

H 	2.213450470	0.669627740	0.233422490
C 	4.102905900	-0.295401090	0.181767970
C 	2.764547550	-0.260705640	0.127828680
C 	1.932335480	-1.397750190	-0.311866360
O 	1.021924450	-1.233150780	-1.198506810
H 	4.617944830	-1.234773980	-0.034701210
C 	6.033940200	0.464094290	1.543694750
C 	5.027576940	0.875707570	0.433771660
C 	4.271564430	2.151114400	0.858235000
C 	5.802039990	1.143220800	-0.889480730
H 	5.109556240	1.425755550	-1.689735110
H 	6.765546610	1.265773200	1.702830790
H 	6.582234920	-0.444526980	1.263484950
H 	5.518593960	0.277765300	2.494102910
H 	4.987252030	2.962221100	1.037645520
H 	3.704703880	1.989401030	1.783404880
H 	3.575720680	2.483047920	0.079829450
H 	6.521732280	1.958038600	-0.740849180
H 	6.356156400	0.252727530	-1.211709660
N 	2.094419280	-2.638722430	0.194273040
C 	1.338765920	-3.774244290	-0.366223400
C 	2.903074280	-2.955207550	1.381899440
H 	0.914183890	-3.490612210	-1.328154390
H 	0.529702560	-4.061594320	0.318064220
H 	2.021240220	-4.623305810	-0.487313800
H 	3.813851080	-3.498460110	1.098561070
H 	2.308636320	-3.593938390	2.045789700
H 	3.177295290	-2.041498650	1.907414690
B 	0.800568050	0.129881780	-2.084678900
F 	2.038295770	0.423430180	-2.655213730
F 	0.376484540	1.104329090	-1.180633100
F 	-0.160751940	-0.256200860	-2.991439400
