27

H 	2.139273111	0.403879379	1.198992860
C 	4.028662314	-0.378902981	0.669237312
C 	2.683761054	-0.426603656	0.759167360
C 	1.870345501	-1.424286806	0.074824197
O 	0.767041996	-1.102580196	-0.495173570
H 	4.606682827	-1.120130211	0.113040235
O 	4.738151138	0.615974302	1.238580790
C 	6.150859327	0.697772285	0.861734862
C 	6.795035635	1.783889985	1.705068530
H 	6.207182087	0.932242680	-0.209493482
H 	6.617084271	-0.282216782	1.037968225
H 	6.308873879	2.749038785	1.528086826
H 	7.854827230	1.873951738	1.438842304
H 	6.722318420	1.544023298	2.771472031
N 	2.235461187	-2.728789244	-0.008626202
C 	1.463339328	-3.639250191	-0.872174532
C 	3.185754413	-3.385320467	0.898789467
H 	1.013097709	-3.075900695	-1.688796646
H 	0.665198593	-4.132273943	-0.301106264
H 	2.143633327	-4.400592926	-1.267615205
H 	4.090709991	-3.699946941	0.363046967
H 	2.708451980	-4.277810925	1.322447727
H 	3.460234397	-2.711247997	1.709454531
B 	0.282710747	0.425250600	-0.809745194
F 	1.326756600	1.014966927	-1.516204044
F 	0.060450039	1.024395379	0.429544378
F 	-0.861879104	0.237635521	-1.550921404
