12
C4H5F2O optimized with ADF in AMS.
C        0.81704291661226      -0.25838096057921       0.84231471305766
C        0.82986827162908      -0.32425074730599      -0.51770483034027
C       -1.46884664849403      -0.36030049098239      -1.19344075667671
H        0.91145203855909      -1.16518775772831       1.43083879235236
C        0.63462421260193       0.96822366270962       1.59116658455231
H       -1.64822274640339      -1.38230041446728      -0.88060088135537
H        0.90974816640354       0.53220078373740      -1.17816309099775
H       -1.28822352095433      -0.17785597814775      -2.24739283832916
H       -1.89926224934902       0.44051836262325      -0.60390990746415
O        0.60300691161034       1.10788134364226       2.78047340725316
F        1.15465856733250      -1.48467650421284      -1.11799037992817
F        0.48591424045205       2.07615928071124       0.76550854787609
