29

H 	1.566037466	-2.688966814	0.653463702
C 	-1.566483272	-0.031748968	1.531747955
C 	0.292722967	-1.383514419	-0.304734941
C 	1.751385951	0.413038077	-1.877265409
O 	4.052983089	0.423210718	-2.254093044
H 	-2.543892634	1.435499140	0.431582712
H 	-0.803101869	-2.461221383	-1.708453580
H 	1.045326234	-0.005532862	4.762402380
C 	-0.030035591	1.319827563	3.597400174
H 	1.338916923	2.627266600	2.760175126
H 	-1.233922003	2.440682642	4.839927394
C 	-5.332447964	-2.776214659	0.273333456
C 	-3.729119663	-1.825706342	2.519405593
C 	-5.504393682	-0.303319392	4.271121944
C 	-2.695446091	-4.121005723	3.988686666
H 	-1.581955650	-3.555154339	5.634346165
H 	-6.969662835	-3.832789776	0.964971085
H 	-4.295032816	-4.059488005	-0.972580691
H 	-6.048689081	-1.207082095	-0.872388187
H 	-7.151115630	-1.449162831	4.771537761
H 	-6.200909139	1.413879546	3.347709951
H 	-4.588028698	0.245390108	6.037080665
H 	-4.262991297	-5.279305828	4.681429445
H 	-1.513068281	-5.342123427	2.813015175
H 	0.659378763	1.898427005	-2.862323955
Al	7.063014228	-1.442672643	-1.243304313
F 	5.953109038	-3.674277033	0.729526485
F 	8.715290733	0.864352269	0.143401309
F 	8.050187431	-2.496678516	-4.051229981
