28

H 	2.023419581	0.922956696	0.233732094
C 	0.000000000	0.000000000	0.000000000
C 	1.498409663	0.000000000	0.000000000
C 	2.319863994	-1.184999893	-0.000000000
O 	3.499953238	-1.222054535	0.395331866
H 	-0.361815817	-0.875924861	-0.548738087
H 	-1.688342724	1.272027796	-0.525128760
H 	-0.344995364	1.324185558	-1.691410007
C 	-0.597593176	1.273176182	-0.626296848
H 	-0.211565516	2.179883263	-0.147514837
O 	1.677259157	-2.302022170	-0.461706443
C 	2.445811652	-3.537988374	-0.389763913
H 	2.746930800	-3.733087507	0.643761779
H 	3.337380311	-3.467706167	-1.019935787
H 	1.770692296	-4.313300838	-0.754759659
C 	-0.279565636	0.850083312	2.408875130
C 	-0.498577919	0.618835591	3.768243278
C 	-0.794904029	-0.666201324	4.234742788
C 	-0.872146594	-1.695793011	3.302156731
C 	-0.658134321	-1.496923986	1.943186996
C 	-0.361862444	-0.204305142	1.483733470
H 	-0.024797488	1.851198372	2.074054541
H 	-0.415330015	1.438119680	4.476932627
H 	-0.951439402	-0.872839482	5.289315019
F 	-1.164434596	-2.963377395	3.738921121
H 	-0.707820347	-2.339520355	1.259424541
I 	3.461491001	-0.167540968	2.982854218
I 	3.131575442	0.763204516	5.567392659
