28

H 	0.505141756	-2.982409225	1.991206353
C 	0.102729685	-1.342447228	0.569144156
C 	0.481963171	-2.818912789	0.907945935
C 	1.827160833	-3.177284449	0.316354309
O 	2.821022489	-3.476065612	0.953688098
H 	0.188865480	-1.222995160	-0.518959647
H 	-0.274512276	-3.483717621	0.463645682
H 	1.054351933	-0.446889870	2.326964321
C 	1.084562389	-0.353624049	1.234738687
H 	2.116082137	-0.542247995	0.915370506
H 	0.826809443	0.677741123	0.971801567
H 	1.869816601	-3.121083779	-0.800551567
C 	-4.028175758	-0.460204774	1.588266784
C 	-3.594903214	-0.385325614	0.260776239
C 	-2.263676741	-0.678207202	-0.059645831
C 	-1.344693262	-1.044782169	0.935481104
C 	-1.792387997	-1.116332168	2.265748283
C 	-3.121652654	-0.828977950	2.590146005
H 	-4.290129155	-0.097419771	-0.525689245
H 	-1.931050742	-0.615303906	-1.095313624
H 	-1.100154295	-1.398466607	3.056950981
H 	-3.450642534	-0.890937868	3.626039902
H 	-5.061494592	-0.232581702	1.841863576
Ti	3.562835133	-0.219089401	-2.510801864
Cl	4.552903428	-1.968756876	-1.644525781
Cl	1.473372184	-0.729618974	-2.999743815
Cl	4.609220435	0.388295135	-4.345055775
Cl	3.591964982	1.432928180	-1.062436868
