28

H 	1.814167730	2.222338290	-0.213052520
C 	3.512064680	0.928889470	-0.405594700
C 	2.155163110	1.192983410	-0.136088100
C 	1.199139820	0.233464960	0.255950020
O 	-0.021316840	0.560466640	0.460142540
H 	3.874149090	-0.095242060	-0.460518310
H 	3.641923500	1.850985800	2.107371040
H 	5.246707890	1.083907840	1.577199400
H 	3.832512210	0.014305290	2.109266660
C 	4.179008920	0.978407960	1.750966470
C 	1.016018420	-2.032693560	-0.837777770
C 	1.513927730	-1.244235300	0.397879440
H 	1.533024960	-1.703860200	-1.747293020
H 	-0.057744440	-1.874750500	-0.979429300
H 	1.198751200	-3.104814730	-0.703452010
H 	2.586526880	-1.412949340	0.545078290
H 	0.994870690	-1.600699090	1.295665530
C 	5.727099170	1.643290980	-1.260925020
H 	6.059108650	2.235840140	-2.118837440
H 	5.930360180	0.587729030	-1.469464720
H 	6.309780420	1.944929360	-0.376535360
N 	4.291854690	1.830432700	-1.068132570
H 	3.947793060	2.786198880	-1.109984240
Ti	-1.284115050	2.202216720	0.211300610
Cl	-2.535162440	4.054609850	-0.135574530
Cl	0.081439260	3.241572050	1.714637830
Cl	-0.689794440	2.028985500	-1.979782810
Cl	-2.936463060	0.914204770	0.997174360
