28

H 	1.802497960	2.129601132	-0.553055290
C 	3.557711705	0.910181863	-0.488485332
C 	2.174428732	1.126771553	-0.361710685
C 	1.225954682	0.173057276	0.057784682
O 	0.001506942	0.498107769	0.235453942
H 	3.971685671	-0.092075375	-0.413168484
H 	3.473305952	2.129789551	1.887232698
H 	5.062027431	1.185474562	1.670229898
H 	3.504833801	0.304554351	2.150038140
C 	3.976635096	1.183261813	1.723477792
C 	0.900566332	-2.187848538	-0.775870206
C 	1.551552934	-1.288198897	0.300093136
H 	1.301365448	-1.960079564	-1.770558216
H 	-0.181489240	-2.027482019	-0.796318690
H 	1.095201404	-3.243475003	-0.557541430
H 	2.632881293	-1.458773747	0.329886455
H 	1.147006723	-1.547884600	1.286700517
C 	5.815449916	1.675842750	-1.158246056
H 	6.215326673	2.232584750	-2.010477342
H 	6.088727939	0.621943797	-1.274249221
H 	6.277781219	2.059239007	-0.235950450
N 	4.360585910	1.798295536	-1.137993544
H 	3.981463423	2.729666246	-1.284623642
Ti	-1.187427127	2.202566309	0.311153745
Cl	-2.345609222	4.144458466	0.382129563
Cl	0.304777260	2.897741677	1.895091618
Cl	-0.707658277	2.400244646	-1.900491978
Cl	-2.880294589	0.868949548	0.909658147
