31

H 	1.578546430	2.175580130	-0.845690540
C 	3.421102870	1.117450620	-0.715216550
C 	2.048818840	1.208264690	-0.693020600
C 	1.156186910	0.143859540	-0.323129180
O 	-0.071457340	0.372838330	-0.101430250
H 	3.884605700	0.137480750	-0.617100150
H 	3.158732200	2.261039860	1.785888380
H 	4.907285070	1.599791340	1.648895610
H 	3.501305980	0.455222290	2.090796160
C 	3.841644750	1.420870880	1.732075430
C 	0.543198020	-2.343053190	-0.140204800
C 	1.654994120	-1.283817300	-0.149177240
H 	-0.002346120	-2.344686730	-1.090370360
H 	-0.179695820	-2.150602030	0.657751920
H 	0.976989600	-3.337794470	0.011597260
H 	2.396409800	-1.503067390	-0.928086900
H 	2.206735220	-1.308528500	0.805416910
C 	6.139989390	4.214945650	-1.876926500
C 	4.813385900	4.541037690	-1.559681250
C 	3.914825940	3.546913800	-1.177319610
C 	4.328695220	2.198528630	-1.105945070
C 	5.670644810	1.886525870	-1.414590690
C 	6.566582580	2.883397950	-1.801489590
H 	4.481654350	5.576048430	-1.607834010
H 	2.898225160	3.820004330	-0.906797450
H 	6.004940090	0.851986560	-1.348501420
H 	7.595851020	2.625003000	-2.040907090
H 	6.837155670	4.995492560	-2.174044950
Zn	-0.968491730	2.189604970	0.282071550
Cl	-2.941180680	2.218860520	-0.567461420
Cl	0.438896730	3.408555590	1.421658790
