29

H 	  2.028306	  0.945190	 -0.056684
C 	  0.000000	  0.000000	  0.000000
C 	  1.489543	  0.000000	  0.000000
C 	  2.299878	 -1.178660	  0.000000
O 	  3.539786	 -1.169254	 -0.042352
H 	 -0.328799	 -1.045638	  0.071290
H 	 -1.576013	  0.487763	 -1.451492
H 	 -0.074527	 -0.084052	 -2.177162
C 	 -0.487116	  0.531160	 -1.372085
H 	 -0.167911	  1.561294	 -1.550948
H 	  1.753371	 -2.148546	  0.040603
C 	 -0.080231	  0.066499	  2.539061
C 	 -0.636541	  0.727061	  1.259788
C 	 -2.166461	  0.530857	  1.244170
C 	 -0.320899	  2.235015	  1.292792
H 	 -0.723238	  2.761000	  0.422731
H 	 -0.545940	  0.503696	  3.428085
H 	  1.001166	  0.202610	  2.632369
H 	 -0.283879	 -1.009691	  2.555685
H 	 -2.602062	  0.916199	  2.171979
H 	 -2.435090	 -0.528615	  1.171239
H 	 -2.649151	  1.060386	  0.418893
H 	 -0.771443	  2.689630	  2.181183
H 	  0.753799	  2.432160	  1.341742
Ti	  7.059597	 -2.286891	 -2.367070
Cl	  7.605777	 -2.168188	 -0.258056
Cl	  5.508017	 -3.795384	 -2.667214
Cl	  8.821295	 -2.876079	 -3.524555
Cl	  6.367298	 -0.340255	 -3.081841
