29

H 	-2.683019357	-5.695090469	0.468458722
C 	-1.208241713	-1.726691572	0.669880869
C 	-1.280428495	-4.386219100	-0.280333161
C 	0.553585612	-5.427240536	-1.980216397
O 	0.694259924	-7.684147534	-2.605403713
H 	0.369083808	-0.771547417	-0.283253732
H 	-0.288733484	0.101874455	4.282295993
H 	1.222838223	-2.829483638	3.816854030
C 	-0.547118043	-1.802368508	3.526253269
H 	-2.007192313	-2.753736574	4.636130788
H 	1.941456791	-4.040309042	-2.737990413
C 	-3.960424423	-0.044579395	-2.894070603
C 	-3.636089896	-0.089570070	0.004391062
C 	-3.236584559	2.656103364	0.910938283
C 	-6.062237515	-1.146546577	1.221011708
H 	-5.945571833	-1.189701799	3.283876921
H 	-5.567772495	1.147277769	-3.420455440
H 	-4.303781839	-1.933092316	-3.661779740
H 	-2.282330787	0.725589580	-3.830648369
H 	-4.771013997	3.857258945	0.214050866
H 	-1.460603412	3.445543029	0.197467120
H 	-3.228488595	2.821005212	2.969961570
H 	-7.675592517	0.052131100	0.727653746
H 	-6.497658873	-3.056741592	0.561826745
Ti	9.460274813	-4.397773226	-3.940295892
Cl	8.007343235	-8.096083527	-4.984179280
Cl	8.314228276	-1.598012996	-6.756734448
Cl	13.582224181	-4.514432180	-3.724234546
Cl	7.953595097	-3.302564782	-0.249776950
