29

H 	-0.202202842	-2.244065927	0.113228315
C 	-0.715474200	-0.073668973	0.304416061
C 	-0.002310794	-1.245995619	-0.275053587
C 	1.006252230	-1.162431600	-1.285845895
O 	1.624696510	-2.140751226	-1.732690525
H 	-0.372428524	0.819489237	-0.235156239
H 	-0.707143448	0.980998881	2.232151459
H 	0.822614237	0.205607517	1.823936111
C 	-0.264436070	0.091266093	1.777980636
H 	-0.528339133	-0.776493293	2.388232341
H 	1.226736976	-0.141903874	-1.674312239
C 	-2.572659602	-0.248525238	-1.421265502
C 	-2.288086254	-0.115536551	0.089923879
C 	-2.906303192	1.209857286	0.580365216
C 	-2.954120089	-1.289377133	0.833658240
H 	-2.812453222	-1.227009261	1.916055477
H 	-3.650388995	-0.218638840	-1.610991325
H 	-2.192124354	-1.190175127	-1.827641349
H 	-2.115203347	0.569080631	-1.988883589
H 	-3.969562614	1.244768583	0.320889923
H 	-2.425846274	2.075333235	0.111244754
H 	-2.836435899	1.329816083	1.664432531
H 	-4.033314646	-1.282037431	0.648759701
H 	-2.577765641	-2.259659786	0.497285519
Ti	5.531549626	-4.046345293	-2.117017251
Cl	4.248910605	-4.712740595	-3.751366110
Cl	5.793798237	-1.878685033	-2.191282656
Cl	7.498400392	-4.982345090	-2.331246862
Cl	4.677290050	-4.637259795	-0.193314683
