29

H 	-1.419792703	-3.013712088	0.247897682
C 	-0.639373982	-0.913725832	0.354485693
C 	-0.677573582	-2.321087191	-0.148345923
C 	0.292944889	-2.871972007	-1.047885391
O 	0.367386529	-4.066275764	-1.378720267
H 	0.195310743	-0.408285312	-0.149891425
H 	-0.152791178	0.053909635	2.266093450
H 	0.647098120	-1.497298261	2.019792169
C 	-0.289522400	-0.953772336	1.866012874
H 	-1.062160429	-1.457214637	2.453334760
H 	1.027374688	-2.138039469	-1.448882135
C 	-2.095766352	-0.023590399	-1.531476207
C 	-1.924135915	-0.047398437	0.002323648
C 	-1.712726791	1.405549368	0.482047780
C 	-3.207997936	-0.606726324	0.646131574
H 	-3.146261119	-0.629563075	1.737752835
H 	-2.946338325	0.607113246	-1.810027070
H 	-2.277463270	-1.022948403	-1.937730387
H 	-1.207757445	0.383965469	-2.027091824
H 	-2.524711878	2.041173527	0.113270842
H 	-0.772918039	1.823302850	0.104495099
H 	-1.708442585	1.492811674	1.571635979
H 	-4.061748636	0.027586587	0.385057779
H 	-3.438412996	-1.617557995	0.297305906
Ti	5.006161836	-2.327201370	-2.085114791
Cl	4.237303559	-4.284262902	-2.637514094
Cl	4.399700128	-0.845632055	-3.575509894
Cl	7.187403512	-2.388934632	-1.970780048
Cl	4.208861266	-1.747642018	-0.132176273
