26

H 	1.903379591	0.921121798	0.205980942
C 	0.000000000	0.000000000	0.000000000
C 	1.363550911	-0.000000000	0.000000000
C 	2.199182280	-1.179473933	0.000000000
O 	3.297784953	-1.173394798	0.658018070
H 	-0.560477406	-0.930721803	-0.070299496
C 	-2.204790942	1.044585131	0.450538563
H 	-2.712882959	1.931219210	0.059157507
H 	-2.368625379	0.990461916	1.536456872
H 	-2.650209122	0.159840188	-0.015807373
N 	-0.783081960	1.104447593	0.108646478
H 	-0.309776334	1.985869051	0.286059363
N 	1.878356883	-2.327702769	-0.659270167
C 	2.681593457	-3.540184233	-0.432743360
C 	0.926087920	-2.402885880	-1.771748468
H 	3.219040706	-3.452461270	0.510426801
H 	3.409543552	-3.677014360	-1.244080007
H 	2.011719309	-4.407118056	-0.406198361
H 	0.013150585	-2.942284069	-1.484424361
H 	1.395847029	-2.945659632	-2.601494875
H 	0.663496022	-1.399965342	-2.109864183
Ti	4.191824671	-0.261011963	2.283816914
Cl	5.107934390	0.778194001	4.072176274
Cl	4.496940232	1.529272275	0.915429177
Cl	2.198801644	-0.585282486	3.327047701
Cl	5.671661927	-1.954877082	2.235790561
