70

C 	0.000000000	0.000000000	0.000000000
C 	0.107677850	-1.486149488	0.000000000
C 	1.326567699	-2.241564756	0.000000000
O 	1.392142501	-3.488379877	-0.012351065
H 	2.000832522	-6.664128474	4.726999545
H 	0.994202574	0.419144002	-0.193324087
H 	-0.801835931	-2.082956492	-0.018148080
H 	-2.534679362	-6.105657808	-2.713029507
H 	-0.931511578	-5.356232122	-2.540701721
H 	2.649499217	-6.061570099	3.188312766
H 	-1.242260948	-6.953660009	-1.834748700
C 	-0.946500458	0.435860034	-1.148210791
H 	-1.956118200	0.039979515	-1.007477641
H 	1.536896085	-7.441292513	3.201691360
H 	1.888445175	-3.185713494	2.738267830
H 	-0.999949856	1.526501119	-1.219255229
H 	-0.573432381	0.054749839	-2.105229955
N 	-0.983582642	-5.209805269	0.191497797
C 	-0.925779535	-5.655272132	1.479413503
N 	0.251680627	-5.362400925	2.103474842
C 	-2.135367198	-5.343170217	-0.708907387
H 	-0.219454219	-4.602986218	-0.118643911
C 	0.542380421	-5.550698214	3.528807882
H 	0.929574232	-4.831321073	1.558722926
H 	-2.814823221	-6.037508386	-0.199675740
C 	1.760244375	-6.479619445	3.675172620
C 	-1.684773204	-5.972696124	-2.034236459
H 	-3.355568666	-3.980758174	1.261852377
H 	-0.335270311	-6.062172635	3.935878116
C 	-2.859803820	-3.999723006	-0.836203470
C 	-2.975397147	-3.301344690	-2.045881316
C 	-3.664562861	-2.082450398	-2.106437722
C 	-4.247213040	-1.545834295	-0.956198436
C 	-4.130023369	-2.232240934	0.259746609
C 	-3.440926328	-3.443646567	0.319627708
H 	-2.536141775	-3.705041178	-2.953823432
H 	-3.743838267	-1.555287455	-3.054973484
H 	-4.788437817	-0.603236099	-1.004112692
H 	-4.579852018	-1.822649417	1.161604393
C 	0.658437877	-4.171520657	4.272193755
C 	0.743499251	-4.426478091	5.794391886
H 	0.727708590	-3.473703931	6.338097521
H 	1.664383143	-4.950470936	6.072435373
H 	-0.108768208	-5.025096210	6.139494224
C 	-0.613415843	-3.339827865	3.983950041
H 	-1.515635484	-3.894822546	4.263513037
H 	-0.590702351	-2.401975808	4.551582568
H 	-0.695332848	-3.089407892	2.921673938
C 	1.903660892	-3.377432506	3.817223284
H 	2.832229743	-3.907448500	4.057087959
H 	1.936736140	-2.404166510	4.321548827
S 	-2.192997567	-6.507983659	2.232662347
O 	2.464516590	-1.470706712	0.018796874
C 	3.716265828	-2.206875462	0.047242945
H 	3.796833369	-2.861113536	-0.826482925
H 	3.781510935	-2.812576041	0.956955260
H 	4.496304884	-1.443890848	0.035821211
C 	-0.458574016	2.113166276	1.364331017
C 	-0.427662236	0.571000440	1.425960705
C 	0.631955528	0.139999114	2.464348044
C 	-1.810645538	0.042151667	1.858225700
H 	-1.818988970	-1.048836998	1.944200585
H 	-0.625748073	2.520712029	2.369371526
H 	-1.262620820	2.485320293	0.721072451
H 	0.493248954	2.514717287	0.993386416
H 	0.392360482	0.562798416	3.447694896
H 	1.632122709	0.485905897	2.177421337
H 	0.668489963	-0.947969277	2.569124236
H 	-2.076626404	0.456173230	2.838736407
H 	-2.595017458	0.329303231	1.150859142
