70

C 	0.356157210	-0.421832490	1.137267920
C 	1.431508100	-1.452878530	1.215617160
C 	2.787297710	-1.222196690	1.626950040
O 	3.674271650	-2.099798710	1.694534980
H 	4.897907970	-4.938449690	6.525123340
H 	0.819027460	0.567353160	1.233754740
H 	1.204638640	-2.479761370	0.935048470
H 	3.539039740	-5.966794890	-2.133218860
H 	4.067067160	-4.412132480	-1.449334270
H 	5.376166520	-3.784910930	5.262921500
H 	4.789797770	-5.926660610	-0.870758850
C 	-0.329769340	-0.509017950	-0.250728250
H 	-0.797317660	-1.485423350	-0.406303240
H 	5.619683750	-5.522894350	5.012500260
H 	3.077594980	-2.150802060	4.445029000
H 	-1.090836420	0.270052570	-0.361780090
H 	0.412924980	-0.368949000	-1.044297500
N 	3.273065070	-4.959429760	1.119154350
C 	3.265899760	-5.528029150	2.360295190
N 	3.679562100	-4.678470700	3.347592620
C 	2.794061750	-5.597236310	-0.114983170
H 	3.427971960	-3.947482920	1.082398400
C 	3.555807220	-4.915076660	4.791889680
H 	3.889171270	-3.723544280	3.056647510
H 	2.676895120	-6.658264590	0.139746920
C 	4.943253570	-4.776634010	5.443000300
C 	3.858876060	-5.463727370	-1.213535070
H 	0.566487900	-5.726318870	1.391205020
H 	3.226534610	-5.954852920	4.885109230
C 	1.407558690	-5.052068120	-0.477543220
C 	1.129969240	-4.402101270	-1.688535620
C 	-0.162567310	-3.938764440	-1.973579430
C 	-1.195358010	-4.120991880	-1.050840740
C 	-0.926530610	-4.762342310	0.166229370
C 	0.361163540	-5.219329650	0.450647840
H 	1.916788120	-4.255693440	-2.423567630
H 	-0.358126550	-3.436491290	-2.919315190
H 	-2.200573380	-3.769699630	-1.275832720
H 	-1.723510470	-4.909495860	0.892319680
C 	2.431384890	-4.013741860	5.423072940
C 	2.154014790	-4.492918570	6.867338690
H 	1.320611650	-3.925037410	7.300218960
H 	3.022858820	-4.353727800	7.520368200
H 	1.881333930	-5.555831460	6.881615290
C 	1.132643730	-4.174108280	4.595964380
H 	0.846941980	-5.228909320	4.515513100
H 	0.310755500	-3.624686340	5.071166390
H 	1.254365100	-3.785270880	3.579580650
C 	2.841906220	-2.523226840	5.449392970
H 	3.715595480	-2.354598280	6.089169280
H 	2.020365550	-1.911463760	5.841407390
S 	2.807894170	-7.142556140	2.648237640
O 	3.052588610	0.084800160	1.964028660
C 	4.408209860	0.352388730	2.416766060
H 	5.134092330	0.052103090	1.654446570
H 	4.613596210	-0.192302440	3.344529920
H 	4.443856790	1.430065690	2.587064090
C 	-1.694952210	0.621460160	2.262828320
C 	-0.667063620	-0.527224250	2.357942990
C 	0.123590710	-0.369721630	3.676611840
C 	-1.404520080	-1.882870050	2.363138880
H 	-0.707333670	-2.722417470	2.446318560
H 	-2.328389080	0.625698860	3.159502750
H 	-2.355339480	0.515929860	1.395408880
H 	-1.195961850	1.597289970	2.199850750
H 	-0.563259500	-0.374294550	4.532248620
H 	0.684887930	0.572351730	3.692698720
H 	0.835173370	-1.188856690	3.814831610
H 	-2.088993680	-1.929880810	3.219653250
H 	-1.998259480	-2.025343490	1.453985700
