30

H 	1.043178101	-3.761401610	4.049966766
C 	-1.149308186	-0.606702117	2.373172800
C 	0.785064495	-2.800660312	2.237547299
C 	3.357341058	-2.031461057	1.227403055
O 	5.363045557	-2.980346481	1.814593645
H 	-0.879506392	0.521948696	0.647691590
H 	0.142968986	-4.242606762	0.887701499
H 	-0.742087050	0.172904789	6.432906551
C 	-0.473714774	1.121860567	4.614529831
H 	1.515083892	1.685691132	4.517061938
H 	-1.588875976	2.858061920	4.628600952
H 	3.285732188	-0.522582003	-0.248245262
C 	-4.559018184	-2.790090304	-0.268497341
C 	-4.009586308	-1.454396773	2.270965645
C 	-5.742172841	0.897567603	2.391976944
C 	-4.726322839	-3.246377368	4.457656132
H 	-4.437343427	-2.367136277	6.305969225
H 	-6.578640135	-3.210696007	-0.430341063
H 	-3.560282597	-4.588480170	-0.465924668
H 	-4.044153786	-1.594672133	-1.878903480
H 	-7.709177018	0.346680262	2.062610728
H 	-5.240054008	2.290178975	0.943703483
H 	-5.674756706	1.835488458	4.230398612
H 	-6.728103876	-3.758058151	4.332629604
H 	-3.642163858	-5.006192782	4.412231414
Sn	9.228472317	-1.741337402	-5.777908492
Cl	5.599605021	0.731199652	-5.959340537
Cl	8.104037859	-5.954784009	-5.370991077
Cl	11.437767258	-1.204748028	-9.533024115
Cl	11.747953632	-0.435432823	-2.450321443
