30

H 	0.552026078	-1.990448013	2.143150118
C 	-0.608187700	-0.321052934	1.255828963
C 	0.415438240	-1.482045612	1.184059039
C 	1.776628377	-1.075002896	0.649513725
O 	2.838001490	-1.577131438	0.960241604
H 	-0.465414739	0.276203355	0.342743629
H 	0.075655930	-2.245090813	0.469751404
H 	-0.392695555	0.091497274	3.404147547
C 	-0.250679063	0.593663046	2.441904026
H 	0.801747868	0.892029332	2.390326238
H 	-0.840796958	1.512421236	2.449350142
H 	1.738734595	-0.276538487	-0.131365735
C 	-2.412528527	-1.476452205	-0.142082674
C 	-2.121781699	-0.769633628	1.201743266
C 	-3.038627008	0.474972321	1.265779688
C 	-2.501062338	-1.717908921	2.358890039
H 	-2.348141019	-1.252634573	3.336975207
H 	-3.481266438	-1.699027158	-0.227726683
H 	-1.884020415	-2.428119139	-0.246556716
H 	-2.140074021	-0.843864152	-0.994272903
H 	-4.079520793	0.183455294	1.091486592
H 	-2.772917165	1.211910522	0.499386377
H 	-3.002951926	0.971298663	2.238630538
H 	-3.560359244	-1.988678731	2.292728850
H 	-1.927350112	-2.649163134	2.334852313
Sn	4.883497242	-0.921476070	-3.057537501
Cl	2.963183367	0.386934193	-3.153547204
Cl	4.288472151	-3.151135994	-2.842206078
Cl	6.052605777	-0.637525201	-5.044659113
Cl	6.216749337	-0.230421127	-1.296654267
