30

H 	0.826925268	-3.815312413	2.501375569
C 	-1.632653107	-0.475314041	2.018621498
C 	0.133661261	-2.573676992	1.002314543
C 	2.377885746	-1.559371829	-0.440815628
O 	4.560815921	-2.171680175	-0.109569162
H 	-1.892454373	0.885060776	0.467648868
H 	-0.879102351	-3.752305560	-0.373884771
H 	0.066431024	-0.262311935	5.804514641
C 	-0.278484238	0.949744564	4.164643584
H 	1.567008448	1.631218065	3.526044793
H 	-1.340784083	2.599814719	4.799187183
H 	1.888539569	-0.160013668	-1.949915304
C 	-5.683584846	-2.436089429	0.267234110
C 	-4.381248615	-1.417151806	2.674684883
C 	-5.981412804	0.830176659	3.635201146
C 	-4.387502744	-3.508922029	4.706620203
H 	-3.526587597	-2.875424105	6.475584059
H 	-7.660357273	-2.896920448	0.665746001
H 	-4.804893832	-4.162443417	-0.452043015
H 	-5.668380870	-1.031643258	-1.254309423
H 	-7.956428397	0.255143121	3.853611887
H 	-5.940841287	2.416100380	2.304297492
H 	-5.344594827	1.524067117	5.472374334
H 	-6.329900842	-4.075086060	5.141239010
H 	-3.382977983	-5.203959678	4.081629811
Sn	11.126508483	-2.114496207	-5.270053501
Cl	7.449897235	-0.643015954	-7.145834466
Cl	10.547013258	-6.188286702	-3.774459319
Cl	14.298664282	-2.164914834	-8.308152183
Cl	12.353821993	0.560434626	-2.027716588
