27

H 	  1.997965	  0.950282	  0.166127
C 	  0.000000	  0.000000	  0.000000
C 	  1.489532	  0.000000	  0.000000
C 	  2.375812	 -1.113654	  0.000000
O 	  3.571716	 -1.105829	  0.234152
H 	 -0.369088	 -0.963367	 -0.361719
H 	 -1.688609	  1.155267	 -0.735851
H 	 -0.369099	  0.962915	 -1.915083
C 	 -0.600278	  1.130786	 -0.857558
H 	 -0.201378	  2.111975	 -0.578512
Br	  1.526764	 -2.902672	 -0.472033
C 	 -0.764058	  0.193665	  4.279457
C 	 -0.477065	  1.366267	  3.571133
C 	 -0.249302	  1.316572	  2.195034
C 	 -0.320857	  0.093524	  1.504629
C 	 -0.594915	 -1.081463	  2.226107
C 	 -0.825863	 -1.030025	  3.601424
H 	 -0.421165	  2.318630	  4.093326
H 	 -0.014684	  2.232915	  1.659744
H 	 -0.618228	 -2.035115	  1.704901
H 	 -1.045233	 -1.945507	  4.146152
H 	 -0.930222	  0.231773	  5.353525
Sn	  4.839035	  0.327822	  2.415714
Cl	  4.378875	  2.081742	  0.905960
Cl	  6.439639	 -1.210700	  1.682421
Cl	  5.880791	  1.441560	  4.219702
Cl	  2.897503	 -0.581683	  3.376543
