27

H 	1.713727500	2.225393690	0.663706030
C 	3.698053270	1.281019970	0.324227550
C 	2.207361670	1.303488060	0.358871370
C 	1.303550080	0.280577510	-0.045494430
O 	0.079814300	0.326642810	-0.057973630
H 	4.042998820	0.242773730	0.299862990
H 	5.415689830	2.004498990	1.443771520
H 	4.056885940	1.480255910	2.469282670
C 	4.324329870	1.997536020	1.540580880
H 	3.981380950	3.035492680	1.616879670
Br	2.147744900	-1.445984200	-0.643888630
C 	4.827135470	3.082198930	-3.474113220
C 	4.206505260	3.860645560	-2.489525410
C 	3.832996350	3.284230560	-1.273338190
C 	4.088300490	1.923849640	-1.021346190
C 	4.687791750	1.143504040	-2.023157240
C 	5.067937800	1.722806370	-3.236802170
H 	4.009634920	4.915168690	-2.670311230
H 	3.347602430	3.898155340	-0.517988920
H 	4.864903840	0.085380290	-1.845186580
H 	5.551194390	1.113291170	-3.998036540
H 	5.117478320	3.530722400	-4.421962880
Sn	-1.711417450	2.334737150	0.126732790
Cl	-0.775058080	2.365215970	2.297076400
Cl	-3.018168000	0.472244500	-0.438614580
Cl	-3.318414240	4.071092870	0.256647220
Cl	-0.230869800	3.160130360	-1.523188380
