27

H 	1.934194471	2.022569574	1.076471371
C 	3.899381265	1.175410014	0.490927645
C 	2.427346294	1.120874053	0.711937228
C 	1.511641532	0.098950200	0.333951372
O 	0.295275532	0.169224441	0.309681417
H 	4.283418197	0.167518484	0.312567711
H 	5.718812240	1.927085696	1.414061332
H 	4.583131906	1.168460720	2.555732315
C 	4.660472441	1.809815951	1.671048390
H 	4.259895731	2.794633552	1.934468884
Br	2.356857363	-1.675415591	-0.196634254
C 	4.025547952	3.332987261	-3.285841840
C 	3.889113052	4.040323435	-2.085782099
C 	3.866709486	3.358368529	-0.868231477
C 	3.996256032	1.958508348	-0.833073135
C 	4.117867766	1.254595796	-2.043836775
C 	4.143597630	1.937858798	-3.260376819
H 	3.790348448	5.123310381	-2.099620610
H 	3.747159448	3.919088569	0.055113756
H 	4.184235277	0.169722742	-2.026618692
H 	4.246706851	1.381663648	-4.189340608
H 	4.031537453	3.864235464	-4.234748062
Sn	-1.230012420	2.394515795	-0.759074514
Cl	-0.488198877	3.279110922	1.298726405
Cl	-2.757894363	0.633519009	-0.582533446
Cl	-2.487729458	4.171114091	-1.676619017
Cl	0.513419329	2.097019129	-2.305645606
