29

H 	1.297625160	2.064816280	-0.452101700
C 	3.175445580	1.050779490	-0.356029090
C 	1.814862570	1.134126760	-0.251657300
C 	0.957822920	0.060849900	0.172914120
O 	-0.249102880	0.071511150	0.349592110
H 	3.645715540	0.076819040	-0.233699040
H 	3.138543720	2.094944650	2.304204630
H 	4.739456350	1.147956320	2.129175290
H 	3.128801390	0.232154370	2.319727930
C 	3.655932210	1.159212120	2.127721180
F 	1.621738400	-1.136600700	0.418978140
C 	4.042146060	1.762537550	-2.532724360
C 	4.032379950	2.121085080	-1.011057920
C 	5.488886240	2.071368720	-0.490900300
C 	3.461115530	3.543921980	-0.824715300
H 	3.349308930	3.788092620	0.238031750
H 	4.668703950	2.484262030	-3.071205980
H 	3.029149880	1.797289880	-2.947470380
H 	4.451658900	0.759469280	-2.702781990
H 	6.132328310	2.689478940	-1.127971660
H 	5.882380750	1.047366980	-0.504317120
H 	5.559744460	2.456663290	0.530937570
H 	4.143167830	4.276220730	-1.272394250
H 	2.486348330	3.663621550	-1.310021110
Sn	-1.976119770	2.090789030	0.416177760
Cl	-3.319830670	0.240483910	0.935742810
Cl	-1.218051630	2.291473100	-1.816985840
Cl	-3.538633210	3.876335370	0.515706330
Cl	-0.404912540	2.800326660	2.038376010
