64

C 	-3.468962064	2.047139838	4.239534628
C 	-1.569479624	0.698816866	3.057157974
C 	-0.571500480	-1.632768290	4.069421199
O 	1.126570717	-2.916149672	3.080994412
H 	1.649366530	-8.022230857	-6.558245345
H 	-4.007196580	1.425356430	6.128801814
H 	-0.742458503	1.357087371	1.297363314
H 	11.035566101	1.065281551	1.585283536
H 	8.885249238	-1.221434251	2.756626381
H 	1.212025191	-7.591869127	-3.269134260
H 	10.254900850	-1.626305729	-0.264297096
C 	-7.266444606	-0.033582323	2.871682111
H 	-6.988511511	0.136471013	0.848986069
H 	4.177675369	-6.948717885	-4.669339399
H 	-2.810974583	-3.184766001	-2.118391055
H 	-8.617140791	1.231791443	3.752073576
H 	-6.993094967	-1.882531616	3.715543167
N 	5.261862855	-0.465351389	-0.891216459
C 	4.486981490	-1.081387366	-3.282347528
N 	2.298529235	-2.489549423	-3.297435933
C 	7.343987628	1.241236161	-0.221250174
H 	4.202501590	-1.121341599	0.567029520
C 	1.412977268	-4.037448186	-5.426242251
H 	1.724018951	-3.096732241	-1.571363209
H 	8.036047646	1.954397371	-2.032654010
C 	2.134135648	-6.816249161	-4.953161296
C 	9.504545503	-0.221971860	1.053789994
H 	5.851031594	5.811087489	-2.006618630
H 	2.496107075	-3.361375629	-7.051052716
C 	6.343440460	3.489713922	1.306012968
C 	6.047052810	3.416796477	3.939323703
C 	5.076609413	5.487416352	5.257993509
C 	4.387370322	7.682436462	3.969302658
C 	4.677525182	7.785237979	1.348595584
C 	5.641527089	5.710450314	0.036282137
H 	6.575043290	1.737140661	4.997920575
H 	4.866832106	5.384483253	7.302660471
H 	3.638003906	9.298971873	4.997295945
H 	4.157043075	9.489787044	0.320514350
C 	-1.457276927	-3.539368895	-6.035912213
C 	-2.220263280	-5.078133099	-8.397184456
H 	-4.125400253	-4.543080334	-9.007319744
H 	-2.244980539	-7.113587325	-8.036792860
H 	-0.935109298	-4.722812885	-9.981572073
C 	-1.826290437	-0.707475931	-6.634871585
H 	-0.656835277	-0.117381944	-8.235472749
H 	-3.805157003	-0.326521582	-7.113403171
H 	-1.314889069	0.481771106	-5.024670498
C 	-3.212259192	-4.280341147	-3.825329981
H 	-3.064515396	-6.287147843	-3.345413188
H 	-5.187958879	-3.918798065	-4.332542677
C 	-5.882989490	9.606038630	2.507956470
C 	-6.365412022	8.540068916	4.873420429
C 	-5.585309721	6.079744013	5.396182793
C 	-4.286798171	4.629487135	3.579587123
C 	-3.815524872	5.736663404	1.204851507
C 	-4.605470379	8.189864701	0.679865861
H 	-7.358508681	9.625371303	6.310734705
H 	-5.981053274	5.268103941	7.244689531
H 	-2.840600878	4.677929187	-0.258724275
H 	-4.228108853	9.001669425	-1.171333926
H 	-6.505301663	11.520148666	2.086116385
H 	-1.418697186	-2.273196134	5.887369743
S 	6.020031994	-0.163749342	-5.921440182
