64

C 	-3.602019760	1.914181940	4.434027131
C 	-1.607755479	0.715452635	3.248157771
C 	-0.575547593	-1.645165801	4.145787035
O 	1.188168003	-2.815162122	3.150399555
H 	1.458787008	-8.081017874	-6.639000750
H 	-4.190813199	1.144611555	6.251284961
H 	-0.737044476	1.514910135	1.570553234
H 	10.888851639	0.855401217	2.135225907
H 	8.441451177	-1.077713152	3.346746900
H 	1.041684428	-7.691427250	-3.343933022
H 	10.096828756	-2.024748606	0.603538878
C 	-7.241065925	-0.189170032	2.778885182
H 	-7.007650828	0.345040293	0.816314027
H 	4.045258669	-7.211863647	-4.724490527
H 	-2.748123313	-3.152641281	-2.144076250
H 	-8.673119752	0.795739955	3.863120176
H 	-6.816078973	-2.126260233	3.292888552
N 	5.347758353	-0.652351902	-0.805110634
C 	4.646423673	-1.315232659	-3.201796856
N 	2.443589450	-2.684225191	-3.256959889
C 	7.450180712	1.008526310	-0.110082802
H 	4.203656893	-1.212341342	0.627294455
C 	1.479577170	-4.113822204	-5.421299389
H 	1.774810159	-3.232019094	-1.549585494
H 	8.396147960	1.428015482	-1.896190897
C 	2.016158270	-6.942709993	-5.009390135
C 	9.325358270	-0.391137101	1.607020035
H 	6.867019488	5.470048994	-2.558324021
H 	2.620285079	-3.473117251	-7.019925771
C 	6.471801562	3.504524499	0.982016854
C 	5.701176086	3.757307758	3.504084722
C 	4.766686826	6.046846225	4.416389712
C 	4.590387209	8.139579599	2.824514471
C 	5.357566656	7.918391521	0.313239169
C 	6.286485116	5.624938298	-0.594078909
H 	5.823832067	2.161722645	4.791393465
H 	4.180518916	6.196806500	6.382143109
H 	3.869900551	9.927827053	3.538176553
H 	5.239676280	9.538061062	-0.947982433
C 	-1.345675447	-3.416586566	-6.049629565
C 	-2.154293867	-4.794848697	-8.492355013
H 	-4.011188230	-4.119048260	-9.107312127
H 	-2.305102100	-6.838887816	-8.231993612
H 	-0.820827921	-4.442324011	-10.035459409
C 	-1.535178506	-0.544336290	-6.525509279
H 	-0.289850917	0.048156496	-8.065072932
H 	-3.474027551	-0.030335320	-7.037565211
H 	-1.007735044	0.542050988	-4.850254956
C 	-3.184133208	-4.143417847	-3.904892288
H 	-3.174792216	-6.173740975	-3.515985178
H 	-5.121564353	-3.632068332	-4.426259033
C 	-6.242088684	9.476299162	3.139469210
C 	-6.806941939	8.212225263	5.382708063
C 	-5.946851896	5.755654660	5.763384037
C 	-4.487325250	4.505076260	3.924299133
C 	-3.931752515	5.812539253	1.675913402
C 	-4.802674298	8.261826095	1.291145113
H 	-7.926042191	9.139122548	6.836256920
H 	-6.405772604	4.787949269	7.518702786
H 	-2.824170428	4.914504586	0.201026552
H 	-4.353348165	9.231759776	-0.464092812
H 	-6.920216280	11.391316889	2.829087703
H 	-1.474349809	-2.420415645	5.884961797
S 	6.289181963	-0.513675295	-5.805316134
