64

C 	-4.494718305	2.083632660	4.633912931
C 	-2.276614832	1.273212511	3.522012568
C 	-1.375049460	-1.281959172	3.825597822
O 	0.544511861	-2.155509816	2.830868539
H 	1.403325780	-8.781985963	-5.768504143
H 	-5.363877004	0.792272842	5.981190550
H 	-1.133338234	2.517417927	2.354970340
H 	11.004162333	0.660977905	2.012094566
H 	8.388440490	-0.966009577	3.328913853
H 	0.593632935	-7.705387119	-2.707089022
H 	10.013024936	-2.268398299	0.715344395
C 	-7.647732780	0.586510456	1.763103756
H 	-6.959802397	1.494854464	0.061849971
H 	3.794210972	-7.826146630	-3.654779289
H 	-2.619318390	-2.436725782	-3.039885170
H 	-9.289028580	1.397738163	2.680067764
H 	-7.346716587	-1.431427148	1.944392756
N 	5.410780426	-0.648470717	-0.951147038
C 	4.957401317	-1.795617781	-3.218802520
N 	2.646335003	-2.956264886	-3.324739709
C 	7.628077208	0.875857365	-0.323024975
H 	4.061263208	-0.788761406	0.398631165
C 	1.790683541	-4.680303946	-5.305058132
H 	1.693852665	-3.060437616	-1.670696663
H 	8.658263802	1.050266043	-2.104153934
C 	1.876901476	-7.407959177	-4.302796118
C 	9.353966724	-0.501969185	1.560211423
H 	7.277900760	5.064645705	-3.247810537
H 	3.212444075	-4.510932717	-6.793891624
C 	6.817964587	3.527013613	0.494051733
C 	6.097515869	4.101986820	2.977498638
C 	5.319224649	6.534382310	3.638627767
C 	5.250879486	8.447545061	1.826106632
C 	5.963875070	7.903474713	-0.654232484
C 	6.736595023	5.469696278	-1.307598992
H 	6.149870469	2.653325783	4.431617639
H 	4.774756318	6.935439063	5.580438082
H 	4.652172354	10.344888156	2.342838859
H 	5.920380257	9.377066882	-2.087399214
C 	-0.794355671	-3.821376607	-6.502710593
C 	-1.489215608	-5.631939928	-8.682595034
H 	-3.128579245	-4.904740188	-9.714733368
H 	-1.978775821	-7.524338213	-8.013924206
H 	0.065325817	-5.814153249	-10.037026525
C 	-0.484389694	-1.142513379	-7.614130311
H 	1.008129868	-1.087649402	-9.042591641
H 	-2.247434687	-0.530665901	-8.509457448
H 	0.000715479	0.237454131	-6.156849590
C 	-2.972615549	-3.788511453	-4.565145969
H 	-3.299692181	-5.645979555	-3.717093261
H 	-4.735555603	-3.217881965	-5.487389824
C 	-6.989104393	9.748148060	5.502324523
C 	-7.877356232	7.845985102	7.098042223
C 	-7.074913596	5.363036445	6.761094359
C 	-5.343436197	4.723529005	4.845876482
C 	-4.464128931	6.666061126	3.256101483
C 	-5.284920696	9.142784482	3.578559915
H 	-9.195932363	8.296176208	8.608326861
H 	-7.779103658	3.893778918	8.014943380
H 	-3.144394513	6.246313663	1.742190369
H 	-4.579619847	10.614436382	2.329927144
H 	-7.612832202	11.689031962	5.757742748
H 	-2.542218258	-2.509665822	5.077940862
S 	7.022272430	-1.750654438	-5.635923561
