29

H 	  2.019746	  0.948589	  0.102952
C 	  0.000000	  0.000000	  0.000000
C 	  1.493437	  0.000000	  0.000000
C 	  2.302556	 -1.173859	  0.000000
O 	  3.550569	 -1.099292	  0.285415
H 	 -0.356736	 -0.626421	 -0.833893
H 	 -1.675058	  1.384384	 -0.172617
H 	 -0.235974	  1.874605	 -1.099966
C 	 -0.580954	  1.420249	 -0.163919
H 	 -0.266384	  2.059693	  0.668257
C 	  1.748566	 -2.539312	 -0.300234
H 	  1.288289	 -2.942042	  0.612621
H 	  2.561212	 -3.203291	 -0.603809
H 	  0.970860	 -2.507774	 -1.069866
C 	 -1.347731	 -1.921549	  3.656301
C 	 -0.315739	 -0.978605	  3.698491
C 	  0.119263	 -0.358792	  2.523918
C 	 -0.478792	 -0.682275	  1.290953
C 	 -1.503965	 -1.638523	  1.253435
C 	 -1.943945	 -2.248905	  2.430653
H 	  0.158293	 -0.727229	  4.644304
H 	  0.935528	  0.359161	  2.567293
H 	 -1.962034	 -1.900665	  0.301084
H 	 -2.748598	 -2.980035	  2.393320
H 	 -1.685496	 -2.402955	  4.571229
Al	  4.449995	  0.336019	  1.114454
F 	  3.471462	  0.583465	  2.473346
F 	  4.297273	  1.599760	  0.006474
F 	  5.994978	 -0.234510	  1.400565
