29

H 	2.019745943	0.948588976	0.102951733
C 	0.000000000	0.000000000	0.000000000
C 	1.493437179	0.000000000	-0.000000000
C 	2.302555996	-1.173858818	-0.000000000
O 	3.550568559	-1.099291589	0.285415322
H 	-0.356735761	-0.626421375	-0.833893111
H 	-1.675057998	1.384383731	-0.172616561
H 	-0.235974047	1.874605028	-1.099966278
C 	-0.580953970	1.420249340	-0.163918612
H 	-0.266383773	2.059693324	0.668256618
C 	1.748566448	-2.539312364	-0.300233681
H 	1.288289082	-2.942041527	0.612621463
H 	2.561211818	-3.203291157	-0.603809459
H 	0.970860356	-2.507773916	-1.069865680
C 	-1.347730656	-1.921549477	3.656300971
C 	-0.315739064	-0.978604983	3.698491037
C 	0.119263164	-0.358792164	2.523917557
C 	-0.478792309	-0.682274819	1.290952625
C 	-1.503964708	-1.638523174	1.253435179
C 	-1.943945016	-2.248904916	2.430652706
H 	0.158293211	-0.727229038	4.644304116
H 	0.935527570	0.359161251	2.567292761
H 	-1.962033770	-1.900665140	0.301084237
H 	-2.748598102	-2.980034894	2.393320167
H 	-1.685496493	-2.402954786	4.571228834
Al	4.449994827	0.336019356	1.114454261
F 	3.471462196	0.583465302	2.473346340
F 	4.297273482	1.599759850	0.006473689
F 	5.994978426	-0.234509963	1.400564803
