29

H 	1.491850830	1.935720830	1.193340190
C 	3.546562140	1.366602290	0.527591850
C 	2.058263440	1.241088790	0.573480900
C 	1.293077510	0.330818480	-0.215971150
O 	0.017588500	0.450692980	-0.289599050
H 	3.989516950	0.363720730	0.647293540
H 	5.176578190	2.348560620	1.592898510
H 	3.803348940	1.897856710	2.634787710
C 	4.084791340	2.283768340	1.647834470
H 	3.677000330	3.295436640	1.541317710
C 	1.932166280	-0.785022260	-0.997999990
H 	2.471559910	-0.363230830	-1.857048780
H 	1.162319240	-1.470801350	-1.357878420
H 	2.668436270	-1.326425390	-0.391744400
C 	4.761632820	2.788844630	-3.396636460
C 	3.657909840	3.360956230	-2.754940450
C 	3.258650060	2.901611960	-1.495631970
C 	3.965719370	1.858901470	-0.867614850
C 	5.062974510	1.279399190	-1.522575510
C 	5.466191480	1.747639020	-2.776459700
H 	3.101519560	4.163543760	-3.234174740
H 	2.390963180	3.346364540	-1.011614420
H 	5.607999870	0.465990330	-1.045267120
H 	6.327020250	1.300925800	-3.270146940
H 	5.072155400	3.148801670	-4.375249730
Al	-1.029626420	1.928075180	0.257827760
F 	-0.227015000	3.190721570	-0.536362010
F 	-0.785616100	1.989115520	1.926588400
F 	-2.574719560	1.569888560	-0.272332730
