29

H 	1.504196335	1.896693360	1.233784541
C 	3.567280637	1.358797257	0.567342700
C 	2.081198956	1.216423377	0.607907760
C 	1.330864875	0.326491556	-0.215279888
O 	0.060559510	0.463267915	-0.325615939
H 	4.024423618	0.362683963	0.684903163
H 	5.184555619	2.353601059	1.638286731
H 	3.810767499	1.892627881	2.673403617
C 	4.093405358	2.280351211	1.687796225
H 	3.677762549	3.288272725	1.579657856
C 	1.972124131	-0.780873366	-1.005240372
H 	2.369109568	-0.362998166	-1.940726034
H 	1.221024509	-1.535203089	-1.250708525
H 	2.811828922	-1.235315891	-0.469952871
C 	4.678348179	2.771666638	-3.388235151
C 	3.603730206	3.356364831	-2.710551446
C 	3.244647504	2.904036606	-1.437964900
C 	3.962676766	1.855281979	-0.832108801
C 	5.030721597	1.264063653	-1.522426158
C 	5.394086376	1.725287617	-2.790191176
H 	3.037589820	4.161651570	-3.172565704
H 	2.395093915	3.354361369	-0.928953701
H 	5.582051698	0.445124838	-1.063196010
H 	6.232172552	1.269053837	-3.312564272
H 	4.956917097	3.124868348	-4.378476402
Al	-0.973938300	1.964259626	0.157321785
F 	-0.130606695	3.200726189	-0.633428194
F 	-0.784076086	2.061450848	1.831386000
F 	-2.509697587	1.626548271	-0.409892215
