8

H 	1.923562969	0.921232380	0.000263207
C 	0.000000000	0.000000000	0.000000000
C 	1.341067625	-0.000000000	-0.000000000
C 	2.105968191	-1.263029650	-0.000000000
H 	-0.558019460	-0.936365373	-0.000104200
O 	3.326143718	-1.331352921	0.001995251
H 	1.477673955	-2.188113898	-0.001151472
H 	-0.580121434	0.919335268	0.000484200
