8

H 	0.059595367	-1.870045260	-0.524327787
C 	-0.857741972	-0.003674045	-0.051131889
C 	0.185107070	-0.815773308	-0.277898372
C 	1.573004315	-0.317064710	-0.204770100
H 	-0.703699808	1.047337996	0.193430047
O 	2.564683299	-1.003461861	-0.402082314
H 	1.665348466	0.767669777	0.050884919
H 	-1.886150458	-0.352413919	-0.100880584
