33

H 	1.764379610	2.366444890	-0.428733920
C 	3.507296990	1.135799490	-0.524052510
C 	2.164845030	1.361277660	-0.392714480
C 	1.184061900	0.336702560	-0.116158560
O 	-0.030443590	0.557444990	0.103548560
H 	3.859267760	0.106090030	-0.562695840
H 	3.447618520	1.670949260	2.263075980
H 	5.018412220	0.710846990	1.945890180
H 	3.372596470	-0.158871460	1.933995140
C 	3.936810560	0.766553470	1.921142730
O 	1.646265560	-0.932733340	-0.089918780
C 	0.657133340	-1.971603930	0.205875550
H 	-0.113330790	-1.984213290	-0.570152040
H 	0.193892800	-1.783328780	1.178330780
H 	1.226113080	-2.902141540	0.211006360
C 	4.610147730	1.934682350	-2.559245480
C 	4.492062880	2.182085000	-1.020422870
C 	5.892781500	1.993655330	-0.389096260
C 	4.006431190	3.625568120	-0.767939030
H 	3.824567000	3.799865750	0.299015200
H 	5.320605380	2.651117500	-2.989769750
H 	3.640086770	2.063871810	-3.051209960
H 	4.974649870	0.922072260	-2.771520770
H 	6.629005190	2.598637570	-0.931663790
H 	6.216981360	0.946391920	-0.435162220
H 	5.901528080	2.314008980	0.657419190
H 	4.770897380	4.335943100	-1.103479650
H 	3.084386050	3.849769120	-1.315315920
Ti	-1.347334780	2.249643900	0.433219070
Cl	-2.691815400	4.014663570	0.770153220
Cl	-2.840660410	0.677108070	0.990763220
Cl	0.201425420	2.877063800	1.960969540
Cl	-0.962748240	2.685263730	-1.746117650
