33

H 	1.747605277	2.331040611	-0.524666593
C 	3.514260671	1.129346395	-0.511079395
C 	2.168248423	1.337954509	-0.426432196
C 	1.198243105	0.307288272	-0.139493143
O 	-0.025422662	0.513261441	0.033712536
H 	3.880899832	0.104580347	-0.483613550
H 	3.488546168	1.927002696	2.242010663
H 	4.948464498	0.780160596	2.014337469
H 	3.217857648	0.093390692	2.076707234
C 	3.878473520	0.947444032	1.994665836
O 	1.678764306	-0.950785619	-0.049823526
C 	0.697346476	-1.989663765	0.265755630
H 	-0.060474429	-2.038585634	-0.520545994
H 	0.215857276	-1.772127828	1.222848107
H 	1.275684609	-2.912701238	0.313915869
C 	4.496273504	2.007940936	-2.576634866
C 	4.499991688	2.166374309	-1.022385883
C 	5.929614847	1.878786897	-0.508078127
C 	4.092479018	3.609023925	-0.654561622
H 	4.015393748	3.731597979	0.431443748
H 	5.213680233	2.711129749	-3.016404788
H 	3.502645218	2.216148306	-2.986566367
H 	4.786556606	0.992898255	-2.872985380
H 	6.650705105	2.509321539	-1.040562477
H 	6.208200265	0.830783101	-0.674465914
H 	6.019306641	2.094517087	0.560806093
H 	4.847261252	4.312085138	-1.024760161
H 	3.133251354	3.891314567	-1.100693017
Ti	-1.350614456	2.199483647	0.367223585
Cl	-2.699980364	3.950846339	0.738973512
Cl	-2.894007822	0.611132029	0.689511414
Cl	0.094804355	2.697863546	2.033214478
Cl	-0.811999480	2.781776024	-1.742337932
