30

H 	1.795329650	2.285191470	1.243052590
C 	3.644543250	1.206555910	0.513804180
C 	2.173951270	1.440049600	0.670084580
C 	1.168315070	0.623763030	0.059675480
O 	-0.082001960	0.802696690	0.181095950
H 	3.835158450	0.125342060	0.550332250
H 	5.525296450	1.721572970	1.489595490
H 	4.159008760	1.516037370	2.612930060
C 	4.454148700	1.901544580	1.630029250
H 	4.284791380	2.984056320	1.624590940
O 	1.620568370	-0.401377750	-0.680565930
C 	0.613522740	-1.228259370	-1.353167900
H 	0.017027970	-0.606203680	-2.026124160
H 	-0.035595480	-1.700643450	-0.610728640
H 	1.191640560	-1.968905070	-1.905954710
C 	3.902062040	3.025205090	-1.267118320
C 	4.286748870	3.452873210	-2.541613210
C 	4.817583150	2.548012540	-3.467934060
C 	4.945594840	1.214059860	-3.082181060
C 	4.571417250	0.759717740	-1.820790290
C 	4.055119910	1.677404310	-0.894300190
H 	3.487678030	3.741764600	-0.562093230
H 	4.169802140	4.498037840	-2.819535290
H 	5.124217780	2.858645560	-4.462987760
F 	5.459625750	0.311255100	-3.979555140
H 	4.689358590	-0.291161690	-1.569659190
Al	-1.206370090	2.043932790	1.046488090
F 	-1.889901460	2.872423100	-0.243141970
F 	-0.130509370	2.971027490	1.969709050
F 	-2.226949660	1.053443960	1.934308970
