30

H 	1.857324890	2.277355547	1.108690485
C 	3.688035881	1.116118164	0.500092549
C 	2.221691942	1.359046854	0.652063686
C 	1.207141509	0.516288235	0.102923729
O 	-0.035953572	0.767411977	0.138515161
H 	3.876951980	0.037957252	0.447501083
H 	5.575262959	1.562626478	1.488052960
H 	4.226301746	1.256632404	2.608490302
C 	4.505330371	1.723918077	1.657385447
H 	4.330293803	2.801526053	1.744457370
O 	1.631212790	-0.618567146	-0.476261207
C 	0.603033292	-1.478244975	-1.068986947
H 	0.061165030	-0.926748403	-1.841848389
H 	-0.093278773	-1.810982176	-0.294727168
H 	1.155325086	-2.316630013	-1.492973205
C 	3.929641266	3.085503122	-1.119833484
C 	4.248882338	3.610574309	-2.374707910
C 	4.687428321	2.773712303	-3.406238647
C 	4.791187733	1.409382297	-3.143259732
C 	4.476042591	0.856021098	-1.906998846
C 	4.055221528	1.705492319	-0.874011162
H 	3.580822649	3.749718818	-0.334124048
H 	4.149371959	4.677937339	-2.555791190
H 	4.939223371	3.157176635	-4.390953182
F 	5.218571615	0.576293137	-4.142217401
H 	4.567260001	-0.216137763	-1.756387732
Al	-1.106031940	2.219402344	0.662444128
F 	-1.756321978	2.730414007	-0.796683459
F 	-0.002979338	3.308527734	1.344593911
F 	-2.166976098	1.526336151	1.759038728
