26

H 	0.610675616	-1.773907160	0.256371295
C 	-0.697926280	-0.126017941	1.004428957
C 	0.465192362	-0.696258934	0.258238610
C 	1.321144607	0.099469859	-0.530376410
O 	2.289330796	-0.318718522	-1.249890449
H 	-0.564957684	0.957749240	1.122358369
H 	-1.815264018	-0.354311688	2.857370666
H 	-0.055823528	-0.560991952	3.042276659
C 	-0.912871381	-0.764945928	2.390487119
H 	-1.028825962	-1.851668982	2.316332394
H 	1.168568757	1.188212227	-0.529186607
C 	-3.962018253	-0.713276078	-1.813766344
C 	-3.452084857	0.571367214	-1.581822458
C 	-2.403415648	0.754837812	-0.678235657
C 	-1.868991675	-0.338967487	0.025810684
C 	-2.377576572	-1.628337831	-0.224373245
C 	-3.422174105	-1.810991172	-1.131647464
H 	-3.871121604	1.427720500	-2.106005388
H 	-2.006909519	1.753486432	-0.501889267
H 	-1.958000681	-2.489725225	0.289199114
H 	-3.808784846	-2.811265530	-1.314549134
H 	-4.770986816	-0.858049857	-2.526423456
B 	2.678743906	-1.955444107	-1.430322923
F 	1.507652461	-2.533841688	-1.904136203
F 	3.016227050	-2.361473388	-0.146390328
F 	3.711395245	-1.921392904	-2.323609184
