24

C 	 -0.915019	  0.689369	  0.510606
C 	 -0.148697	 -0.587078	  0.484175
H 	 -0.780638	 -1.352623	  0.008328
C 	 -2.180320	  0.875239	 -0.123234
H 	 -0.507314	  1.547484	  1.046451
O 	 -2.817569	  1.948215	 -0.112153
C 	  0.137213	 -1.043031	  1.939778
H 	  0.634045	 -2.017910	  1.956972
H 	 -0.801534	 -1.133989	  2.496596
H 	  0.769496	 -0.321375	  2.468001
H 	 -2.592259	 -0.012543	 -0.656448
C 	  0.719400	 -0.101327	 -1.856153
C 	  1.153498	 -0.491303	 -0.424998
C 	  1.844126	 -1.870988	 -0.478906
C 	  2.147245	  0.561601	  0.110197
H 	  2.483980	  0.326018	  1.125771
H 	  1.588101	 -0.079667	 -2.525095
H 	  0.251745	  0.889480	 -1.878500
H 	 -0.000212	 -0.823936	 -2.261323
H 	  2.666381	 -1.847030	 -1.204697
H 	  1.142267	 -2.653862	 -0.793544
H 	  2.268248	 -2.159081	  0.488487
H 	  3.035733	  0.593857	 -0.532147
H 	  1.708290	  1.565575	  0.117378
