24

C 	0.102456782	0.526304425	0.373782992
C 	0.855886884	-0.759221082	0.327453684
H 	0.218054662	-1.512586911	-0.160758177
C 	-1.163316187	0.743271968	-0.251104726
H 	0.520876186	1.368937474	0.926196004
O 	-1.785611024	1.825397963	-0.211041031
C 	1.135758720	-1.239811568	1.777580120
H 	1.624962792	-2.218908174	1.779839824
H 	0.194543982	-1.332053565	2.331040956
H 	1.772947922	-0.530933847	2.318355470
H 	-1.590286136	-0.126153578	-0.803975992
C 	1.729278692	-0.296221624	-2.015932449
C 	2.162147446	-0.660346519	-0.576087565
C 	2.872805742	-2.032186796	-0.606481813
C 	3.139765776	0.413621556	-0.048793170
H 	3.464882751	0.200986235	0.976054695
H 	2.601554897	-0.268135810	-2.680734492
H 	1.243441460	0.685651258	-2.053126116
H 	1.025178651	-1.038188345	-2.415138720
H 	3.687012944	-2.012575389	-1.342184415
H 	2.179651562	-2.833336828	-0.894880990
H 	3.312684257	-2.290957589	0.363033839
H 	4.036716366	0.441628986	-0.680394746
H 	2.690792435	1.413285849	-0.067588731
