26

H 	2.293869030	0.875299520	-0.182650970
C 	4.174259300	-0.088085190	0.238090990
C 	2.835002030	-0.043444800	0.014691990
C 	2.009141520	-1.239662640	0.052951980
O 	0.761424490	-1.243650340	-0.123115810
H 	4.613555840	-1.062246370	0.453429040
C 	6.482471820	0.703149130	0.571853670
C 	7.467669720	1.684732430	0.602229980
C 	7.134153840	3.011452610	0.296581390
C 	5.817194490	3.347696230	-0.036852490
C 	4.847986900	2.352644230	-0.059756530
C 	5.134332160	1.000755100	0.242627270
H 	6.736808370	-0.328767990	0.805928210
H 	8.490691010	1.422285260	0.860058180
H 	7.897136230	3.786553310	0.315406220
H 	5.533681970	4.367865910	-0.280843590
F 	3.575532220	2.711877710	-0.395265430
O 	2.636681830	-2.396710430	0.295956170
C 	1.807259160	-3.607268860	0.332311890
H 	1.318186050	-3.750245220	-0.634665480
H 	1.055626850	-3.518082140	1.121052810
H 	2.510095400	-4.413748640	0.543685280
Al	-0.567724730	0.014632300	-0.590879430
F 	-0.637231640	-0.163345210	-2.260209480
F 	0.085256600	1.485617490	-0.078062580
F 	-1.893944550	-0.529977180	0.278219400
