17
GO, Rcat=AlF3
H	 0.83345051	-1.35209109	 1.20167740
C	-0.83092072	 0.03538951	 0.93442801
C	 0.35139657	-0.78131674	 0.40158875
C	 1.39689343	 0.07225735	-0.26739819
O	 2.40703452	-0.34587328	-0.75774611
H	-1.19392452	 0.69150371	 0.13740680
H	 0.00939092	-1.50634328	-0.34451216
H	-0.05768346	 0.24518214	 2.94899716
C	-0.44138171	 0.87842746	 2.14736270
H	 0.32560687	 1.60312788	 1.87585802
H	-1.31355949	 1.41759590	 2.51749654
H	-1.62209815	-0.63358328	 1.20166141
H	 1.16279025	 1.11629180	-0.25802988
Al	 3.62898812	-1.04016615	-1.71419100
F	 2.54630235	-1.34403940	-2.87684526
F	 3.90716904	-2.13950317	-0.56076746
F	 4.43349296	 0.36304414	-1.70496026
