22

H 	1.965458524	0.907740723	0.003931901
C 	0.000000000	0.000000000	0.000000000
C 	1.366530115	0.000000000	0.000000000
C 	2.070139594	-1.239672278	-0.000000000
O 	3.323863804	-1.376334226	0.001733749
H 	-0.505261367	-0.969192410	0.000939465
C 	-2.642890143	3.338883729	0.017839927
C 	-1.256797036	3.558533476	-0.009280583
C 	-0.376568880	2.482527493	-0.016000860
C 	-0.870939359	1.154990972	0.003145581
C 	-2.271112504	0.951627393	0.027961528
C 	-3.148519219	2.033382572	0.036276078
H 	-0.868452994	4.573903813	-0.024570770
H 	0.694241004	2.664601791	-0.036884885
H 	-2.659006378	-0.065073781	0.041997915
H 	-4.222167173	1.863341312	0.056941588
H 	-3.325384271	4.185731743	0.024116890
H 	1.478070318	-2.169500580	-0.001761978
Al	4.783791736	-0.168230204	0.002251668
F 	4.046814491	1.357673636	0.040938279
F 	5.545113503	-0.517413404	-1.448548034
F 	5.591581272	-0.572306425	1.412523472
