33

H 	0.033243000	2.109774000	0.187395000
C 	0.000000000	-0.000000000	0.000000000
C 	-0.566907000	1.224556000	0.000000000
C 	-2.015521000	1.492354000	-0.000000000
O 	-2.483865000	2.391355000	0.772812000
H 	-0.623198000	-0.881756000	-0.129639000
H 	1.001890040	1.008184650	-1.541951060
H 	0.485280690	-0.785306910	-1.728439940
H 	-0.757850520	0.582330530	-2.043871480
C 	0.235578320	0.269547590	-1.743807830
N 	-3.126403040	0.985469000	-0.728395760
C 	-3.643046670	1.460015670	-2.022390050
C 	-3.193161680	-0.467960350	-0.521025040
H 	-3.739168460	2.544478160	-2.002340010
H 	-2.957613220	1.177700930	-2.832727800
H 	-4.618736050	0.995870960	-2.202758290
H 	-4.201508320	-0.780760060	-0.222023520
H 	-2.941556650	-0.962624890	-1.466449000
H 	-2.477170910	-0.773999400	0.240172470
C 	2.340385000	0.697064000	0.673615000
C 	3.686898000	0.387145000	0.843339000
C 	4.161263000	-0.898475000	0.545454000
C 	3.280974000	-1.879712000	0.079970000
C 	1.942427000	-1.546049000	-0.079802000
C 	1.423065000	-0.267220000	0.194830000
H 	1.978258000	1.685551000	0.943358000
H 	4.368784000	1.144684000	1.221102000
H 	5.212551000	-1.140769000	0.680713000
H 	3.614412000	-2.886147000	-0.157369000
F 	1.086592000	-2.517491000	-0.543895000
Zn	-1.654896000	4.018451000	1.677368000
Cl	0.468525000	3.824197000	2.114132000
Cl	-3.236911000	5.478873000	1.770013000
