33

H 	0.783439440	3.561904410	-0.263214530
C 	0.795187810	1.450532850	-0.936286420
C 	0.268310840	2.603788750	-0.154882020
C 	-0.887138510	2.590579280	0.713950310
O 	-1.349752170	3.706270710	1.111945920
H 	0.010800400	0.695084870	-1.044149610
H 	1.600530780	3.088675310	-2.486478990
H 	1.755455120	1.507713590	-3.283889950
H 	0.163231270	2.293879190	-3.176223130
C 	1.181397140	2.285451710	-2.770129470
N 	-1.579441400	1.422610690	1.106903520
C 	-2.587767520	0.924502520	0.153008850
C 	-0.757915760	0.362301590	1.747718620
H 	-3.159052720	1.767288020	-0.254412400
H 	-2.150587500	0.349162620	-0.687952370
H 	-3.286802600	0.270469000	0.687837100
H 	-1.422746460	-0.197845490	2.420092650
H 	-0.283504580	-0.355587090	1.048947250
H 	0.023704180	0.821242360	2.369998730
C 	3.228250070	1.700931070	0.041092470
C 	4.542314110	1.244936130	0.175378220
C 	4.873953080	-0.061553310	-0.196558190
C 	3.890320640	-0.917912740	-0.705867780
C 	2.592723270	-0.438585640	-0.826682880
C 	2.223903910	0.861820820	-0.469087530
H 	2.980536930	2.713052460	0.351300090
H 	5.302345110	1.909193370	0.578257270
H 	5.894605360	-0.420839080	-0.090915650
H 	4.115087210	-1.937897230	-1.005698970
F 	1.625555000	-1.285073460	-1.319179070
Zn	-0.408890370	5.580651860	1.238106280
Cl	1.658184040	5.176621220	1.765078880
Cl	-1.856146600	7.071246320	0.734917520
