33

H 	1.190500034	2.622212904	1.354440132
C 	1.130556504	1.119986776	-0.167350643
C 	0.567671042	1.945676013	0.776099823
C 	-0.860634714	2.263999051	0.849785228
O 	-1.219806969	3.487880402	0.932906076
H 	0.500818872	0.411187026	-0.695023531
H 	1.725907242	3.138592573	-1.873094593
H 	1.316303589	1.605808007	-2.839690567
H 	-0.049569819	2.682718194	-2.173218139
C 	0.995759077	2.392160018	-2.164489532
N 	-1.816968034	1.305522726	0.793883844
C 	-3.230288733	1.697818793	0.673433705
C 	-1.565807609	-0.120850824	1.035956544
H 	-3.294144733	2.685881642	0.217931774
H 	-3.744723749	0.959927495	0.048675992
H 	-3.711418157	1.726550391	1.660364501
H 	-2.258931190	-0.477128246	1.808106559
H 	-1.730763916	-0.707444013	0.123259149
H 	-0.543567602	-0.269148774	1.382347958
C 	3.546753141	1.776966612	0.229520721
C 	4.908461257	1.503651932	0.116303678
C 	5.344492353	0.322704751	-0.500115373
C 	4.411417125	-0.583105460	-1.013475000
C 	3.060624242	-0.285133914	-0.887946862
C 	2.578633183	0.876321687	-0.263735639
H 	3.221548560	2.712548569	0.677818696
H 	5.632958698	2.218359774	0.498059468
H 	6.406853447	0.110696031	-0.592746527
H 	4.713306548	-1.505191466	-1.502606152
F 	2.149488421	-1.181940834	-1.400773058
Zn	-0.123056955	4.987067989	0.074476069
Cl	1.799455485	5.302852803	1.038449366
Cl	-1.271737120	5.617468055	-1.644628947
