33

H 	-0.070016064	2.729564638	-0.199789558
C 	0.140657394	0.858215280	-1.359756136
C 	-0.606345593	1.835785104	-0.514864125
C 	-1.907037110	1.667419652	0.033161768
O 	-2.486628440	2.614966611	0.651798522
H 	-0.560942181	0.166126913	-1.832834217
H 	1.673306735	2.270360407	-2.028461007
H 	1.477335502	0.854591899	-3.084659358
H 	0.269417198	2.161327868	-3.117656481
C 	0.941240528	1.585502235	-2.470814286
N 	-2.617095836	0.430442481	-0.042607924
C 	-3.306556343	0.136183791	-1.301049261
C 	-2.055409679	-0.718811410	0.677620344
H 	-3.756359823	1.052867957	-1.693916599
H 	-2.650370842	-0.301567876	-2.075122583
H 	-4.113131404	-0.579745301	-1.100098778
H 	-2.876735771	-1.382316305	0.974878211
H 	-1.336842166	-1.300956839	0.077745364
H 	-1.548433955	-0.371403940	1.582353970
C 	1.719099877	0.527150951	0.662354521
C 	2.585935450	-0.268742654	1.416542746
C 	2.824788819	-1.596292454	1.046398005
C 	2.195257077	-2.131806810	-0.083033152
C 	1.338729726	-1.316957359	-0.812864086
C 	1.077056189	0.016289903	-0.478904690
H 	1.528798150	1.550657268	0.975369971
H 	3.066888370	0.148648549	2.297344367
H 	3.495845158	-2.219068766	1.632823096
H 	2.357809692	-3.158432295	-0.400024169
F 	0.718909180	-1.852106556	-1.920828157
Zn	-1.669636519	4.408085519	1.352167165
Cl	0.225710132	3.858004812	2.261888042
Cl	-2.992630920	6.015347605	0.852227165
