22

C 	0.072379000	0.458490000	0.147016000
C 	0.881364000	-0.769627000	0.345434000
H 	0.320085000	-1.649370000	0.008484000
C 	-1.244537000	0.481405000	-0.412106000
H 	0.491509000	1.421715000	0.440204000
O 	-1.898244310	1.497560150	-0.580911970
C 	1.357984000	-0.971567000	1.798392000
H 	1.975789000	-1.872162000	1.871864000
H 	0.508075000	-1.083701000	2.478485000
H 	1.956137000	-0.121560000	2.141940000
Cl	-1.912614650	-1.082088980	-0.866813390
C 	4.400106690	-0.519403040	-2.184261950
C 	3.593053820	-1.663420560	-2.218433040
C 	2.457844250	-1.744147310	-1.402307710
C 	2.129687570	-0.680856520	-0.552011300
C 	2.936740440	0.463161000	-0.517840200
C 	4.071950000	0.543887740	-1.333965530
H 	3.844168090	-2.477079100	-2.869102590
H 	1.840265820	-2.619580100	-1.428456350
H 	2.685626180	1.276819530	0.132829350
H 	4.689528440	1.419320530	-1.307816890
H 	5.268799400	-0.457628780	-2.808782870
