27

H 	2.010553631	0.946765192	0.046055696
C 	0.000000000	0.000000000	0.000000000
C 	1.479146601	0.000000000	0.000000000
C 	2.316521195	-1.152111326	0.000000000
O 	3.545768546	-1.208023611	0.078361780
H 	-0.357085511	-1.015908173	-0.201704132
H 	-1.601693602	0.969131694	-1.137677012
H 	-0.165534358	0.585926811	-2.098582104
C 	-0.508501290	0.943397673	-1.121897210
H 	-0.138143439	1.964594112	-0.986348677
F 	1.651187997	-2.350283765	-0.108347374
C 	0.049185562	-0.597450010	2.487131457
C 	-0.573481826	0.370215604	1.455205884
C 	-2.102433423	0.167474033	1.437138434
C 	-0.237206347	1.823730877	1.844393348
H 	-0.691488471	2.546624186	1.158276171
H 	-0.411760077	-0.443832976	3.469733929
H 	1.126259340	-0.426531292	2.596764275
H 	-0.110214787	-1.643982267	2.200004280
H 	-2.502907882	0.330611985	2.445353370
H 	-2.365946339	-0.852960478	1.132277992
H 	-2.608223771	0.870341033	0.767131508
H 	-0.630482717	2.031233227	2.846980244
H 	0.843458887	1.997916555	1.874862261
Zn	4.958705902	0.293330466	0.777460209
Cl	6.762640033	-0.054042023	-0.293543371
Cl	3.771083774	1.400114690	2.195459680
