27

H 	  2.010554	  0.946765	  0.046056
C 	  0.000000	  0.000000	  0.000000
C 	  1.479147	 -0.000000	  0.000000
C 	  2.316521	 -1.152111	  0.000000
O 	  3.545769	 -1.208024	  0.078362
H 	 -0.357086	 -1.015908	 -0.201704
H 	 -1.601694	  0.969132	 -1.137677
H 	 -0.165534	  0.585927	 -2.098582
C 	 -0.508501	  0.943398	 -1.121897
H 	 -0.138143	  1.964594	 -0.986349
F 	  1.651188	 -2.350284	 -0.108347
C 	  0.049186	 -0.597450	  2.487131
C 	 -0.573482	  0.370216	  1.455206
C 	 -2.102433	  0.167474	  1.437138
C 	 -0.237206	  1.823731	  1.844393
H 	 -0.691488	  2.546624	  1.158276
H 	 -0.411760	 -0.443833	  3.469734
H 	  1.126259	 -0.426531	  2.596764
H 	 -0.110215	 -1.643982	  2.200004
H 	 -2.502908	  0.330612	  2.445353
H 	 -2.365946	 -0.852960	  1.132278
H 	 -2.608224	  0.870341	  0.767132
H 	 -0.630483	  2.031233	  2.846980
H 	  0.843459	  1.997917	  1.874862
Zn	  4.958706	  0.293330	  0.777460
Cl	  6.762640	 -0.054042	 -0.293543
Cl	  3.771084	  1.400115	  2.195460
