27

H 	0.817105260	-1.572437070	0.217284240
C 	-0.591056280	0.029373140	0.833762370
C 	0.608282150	-0.507234420	0.155674190
C 	1.521738440	0.230710870	-0.652250670
O 	2.475866080	-0.194893070	-1.309840470
H 	-0.558254080	1.124443520	0.804303150
H 	-1.478601650	-0.056347020	2.836228940
H 	0.292344590	-0.054992630	2.832959660
C 	-0.594647940	-0.436327240	2.315670950
H 	-0.588319160	-1.528769490	2.393210440
F 	1.301913040	1.589721180	-0.688869980
C 	-1.778114550	0.073112820	-1.437439630
C 	-1.929287210	-0.377363520	0.034277770
C 	-3.116842030	0.374272790	0.672328370
C 	-2.178081240	-1.898712450	0.081706500
H 	-2.336356880	-2.256890950	1.105109860
H 	-2.720554660	-0.085484290	-1.974856370
H 	-1.002019180	-0.503598690	-1.953875170
H 	-1.525933410	1.138607640	-1.506205320
H 	-4.026118190	0.178807730	0.089858570
H 	-2.946854370	1.458380990	0.676538940
H 	-3.310686130	0.049867920	1.700339450
H 	-3.082425860	-2.135813290	-0.492469390
H 	-1.351373360	-2.461343280	-0.365660920
Zn	2.889334870	-2.255343380	-1.882552940
Cl	5.002597990	-2.496239260	-1.792502350
Cl	0.908834210	-3.048481410	-2.196422890
