32

H 	1.786741881	1.948975967	-0.980906669
C 	3.517518838	0.797522402	-0.608394023
C 	2.150868468	0.983100442	-0.645840509
C 	1.146188095	0.100795139	-0.098462180
O 	0.013930154	0.546838827	0.306630405
H 	3.984615166	-0.160448404	-0.396795174
H 	3.899982460	2.251750189	1.592061488
H 	4.931695732	0.708464794	1.761874273
H 	3.107325112	0.664950562	2.111043359
C 	3.954055141	1.171831356	1.663823693
N 	1.344677947	-1.244525333	0.048770763
C 	2.274056015	-2.035308271	-0.767764452
C 	0.353918201	-2.026846614	0.806940532
H 	2.623778099	-1.449821913	-1.618784040
H 	1.742732586	-2.915430213	-1.149031095
H 	3.134659235	-2.383312031	-0.180418660
H 	0.865188513	-2.880261172	1.264297424
H 	-0.443887319	-2.395914201	0.147742371
H 	-0.097453209	-1.402170419	1.577236002
O 	4.303523700	1.716174703	-1.224072538
C 	5.741003955	1.480984322	-1.167488382
C 	6.412158940	2.440558196	-2.135567956
H 	5.938423963	0.432850234	-1.436372776
H 	6.078790339	1.648811124	-0.136432836
H 	6.072846177	2.261715433	-3.161566897
H 	7.498850145	2.300290728	-2.097252255
H 	6.186804386	3.478318720	-1.867916950
Sn	-0.916524949	2.571495753	0.672513427
Cl	-0.713940151	2.866617393	-1.692169910
Cl	0.978299260	3.005406704	2.065622375
Cl	-2.001617373	4.680043854	1.079841698
Cl	-2.644849324	1.194107901	1.543376041
