28

H 	2.034843310	-0.727718247	0.000093895
C 	0.000000000	0.000000000	0.000000000
C 	0.976732999	-0.972889645	0.000000000
C 	0.639015958	-2.355803681	0.000000000
O 	1.511951370	-3.257227781	0.016555330
H 	-1.029028332	-0.345988863	0.100938363
H 	0.273876216	0.572545581	-2.785314906
H 	-1.530286762	0.408685197	-2.365806353
H 	-0.476479873	-1.104205862	-2.557408879
C 	-0.542267397	-0.033246045	-2.411482438
H 	-0.420097869	-2.647794338	-0.004075426
C 	0.150061337	1.450749909	1.951087702
C 	0.213935361	1.454175846	0.392118327
C 	-0.924097995	2.356634047	-0.127911003
C 	1.574785115	2.019824194	-0.054882301
H 	1.689240612	1.988122908	-1.141793616
H 	0.259410105	2.475327233	2.320297512
H 	0.948644797	0.841500388	2.381401070
H 	-0.806859938	1.063418235	2.314230347
H 	-0.855115285	3.345906001	0.333565363
H 	-1.908263478	1.945792896	0.119078350
H 	-0.872721450	2.495166698	-1.209675672
H 	1.659909179	3.065022434	0.256260559
H 	2.415239097	1.482192051	0.391200863
B 	1.106100892	-4.905411611	0.004889343
F 	1.649747860	-5.327901410	-1.179529754
F 	-0.275474675	-4.946751962	0.042329010
F 	1.717413367	-5.368025916	1.137958784
