28

H 	0.545860555	-3.735173306	0.260591939
C 	-1.919751312	-0.532415758	0.835585376
C 	0.352658974	-1.692450016	0.311735316
C 	2.568156596	-0.254264917	-0.196186324
O 	4.645185365	-1.276327255	-0.712229854
H 	-1.965081887	1.520044106	0.659984747
H 	-1.502255021	-1.399338239	6.157560760
H 	-2.528271810	1.914727702	5.596694742
H 	0.826587419	1.008852809	5.152348792
C 	-1.130100511	0.440984407	5.342902578
C 	-5.194058949	-1.651196007	-2.199421937
C 	-4.498195557	-1.793500165	0.662002086
C 	-6.519448605	-0.314438324	2.153468990
C 	-4.492628578	-4.579201587	1.503201756
H 	-3.921315125	-4.780855184	3.478670062
H 	-7.076764469	-2.458195105	-2.486642228
H 	-3.847969566	-2.707334499	-3.355672868
H 	-5.231192883	0.301967714	-2.877947168
H 	-8.400796564	-1.040498067	1.700070630
H 	-6.496516614	1.698307748	1.675634261
H 	-6.258161904	-0.497580299	4.192090782
H 	-6.395341251	-5.365886975	1.319909022
H 	-3.239274792	-5.746294027	0.349065156
H 	2.461528537	1.818528976	-0.153556226
B 	7.275600493	0.441532225	-1.343971871
F 	6.582286672	2.937896274	-0.998845878
F 	7.783506549	-0.193938321	-3.800115204
F 	8.948157040	-0.451535520	0.416335692
