28

H 	0.452043695	-1.739047720	0.048663949
C 	-0.841815020	-0.012094524	-0.068483111
C 	0.374370208	-0.661211832	-0.060620458
C 	1.594703800	0.059023814	-0.196820929
O 	2.711295868	-0.513633465	-0.208717025
H 	-0.819684097	1.056590412	-0.283468890
H 	-1.170318460	-0.147223091	2.766057682
H 	-1.566014581	1.573482907	2.182587760
H 	0.197672732	1.026720130	2.345429306
C 	-0.850983138	0.765276886	2.278007122
H 	1.561613646	1.151731631	-0.305871006
C 	-2.278301436	-0.776880416	-1.881090692
C 	-2.185939346	-0.675981377	-0.326817302
C 	-3.356793104	0.201241137	0.162634804
C 	-2.302917289	-2.087729731	0.277303891
H 	-2.185392989	-2.074106000	1.364264642
H 	-3.242108084	-1.214946101	-2.158952041
H 	-1.482838804	-1.406199734	-2.287645133
H 	-2.208395593	0.207732104	-2.353582057
H 	-4.303341546	-0.197850784	-0.213064192
H 	-3.266751834	1.230685510	-0.198630668
H 	-3.420567549	0.225276928	1.252313998
H 	-3.290677881	-2.502624955	0.056654146
H 	-1.564248157	-2.779200015	-0.135779836
B 	4.165300468	0.349165955	-0.359741611
F 	4.787001172	0.077145553	0.830380815
F 	3.795972863	1.672185579	-0.518101947
F 	4.731031438	-0.217525913	-1.468962099
