28

H 	0.854238779	-3.286323909	0.091961536
C 	-1.590799836	-0.022855338	-0.129414324
C 	0.707457163	-1.249509273	-0.114556063
C 	3.013553432	0.111538844	-0.371937652
O 	5.123606633	-0.970626578	-0.394418015
H 	-1.548978453	1.996666504	-0.535678567
H 	-2.211581369	-0.278211321	5.227091464
H 	-2.959338666	2.973451757	4.124493110
H 	0.373547326	1.940219853	4.432219032
C 	-1.608125068	1.446163724	4.304809571
H 	2.951022103	2.176457352	-0.578012430
C 	-4.305365743	-1.468091219	-3.554746223
C 	-4.130826689	-1.277419668	-0.617595194
C 	-6.343419624	0.380290635	0.307335239
C 	-4.351882963	-3.945237413	0.524028408
H 	-4.129794223	-3.919492293	2.578086534
H 	-6.126696345	-2.295915387	-4.079828073
H 	-2.802159227	-2.657332374	-4.323022772
H 	-4.173262846	0.392556784	-4.447625499
H 	-8.132136943	-0.373883795	-0.402632970
H 	-6.173266284	2.325658560	-0.375357563
H 	-6.463935858	0.425711696	2.366530479
H 	-6.218479960	-4.729275758	0.107060819
H 	-2.956000609	-5.251926873	-0.256586702
B 	7.871277111	0.659828027	-0.679813120
F 	9.046121174	0.145783967	1.569192319
F 	7.173349089	3.159972774	-0.979070784
F 	8.940353705	-0.411064401	-2.775936055
