28

H 	0.450422129	-1.748570659	0.075529253
C 	-0.831436046	-0.018761067	-0.087521255
C 	0.382991446	-0.672532848	-0.057342616
C 	1.613444475	0.034131927	-0.192906214
O 	2.730960160	-0.543531878	-0.180658968
H 	-0.806248543	1.047031033	-0.317726997
H 	-1.141544411	-0.118072628	2.751610755
H 	-1.612856359	1.577560263	2.150580505
H 	0.173892779	1.107140115	2.307683178
C 	-0.863461610	0.801239371	2.250344118
H 	1.586343231	1.125083165	-0.321111662
C 	-2.315715232	-0.741122577	-1.883178169
C 	-2.184544960	-0.678311325	-0.329313715
C 	-3.353515926	0.180189471	0.204373170
C 	-2.289826156	-2.103723423	0.245756428
H 	-2.139324902	-2.115709617	1.329035600
H 	-3.280268073	-1.187505227	-2.145798719
H 	-1.522285956	-1.346996102	-2.327789665
H 	-2.275379901	0.257168288	-2.329989990
H 	-4.301056042	-0.214032195	-0.174664036
H 	-3.275352023	1.222046297	-0.122716142
H 	-3.406793231	0.165226686	1.294815320
H 	-3.286437813	-2.508373453	0.046090317
H 	-1.568357021	-2.789302049	-0.205768029
B 	4.183112462	0.340291750	-0.339726690
F 	4.757921751	0.179631423	0.899748641
F 	3.802239716	1.644766188	-0.623494822
F 	4.806993029	-0.304958008	-1.377910485
