42

C 	-2.117334622	-4.479341856	-7.804939905
H 	-4.023118714	-3.771090079	-8.191643670
H 	-2.218426107	-6.544318366	-7.829406416
H 	-0.902869984	-3.878214590	-9.371725138
H 	-0.839341757	0.304647246	-3.489049078
C 	-1.461575525	-0.536549334	-5.269710623
H 	-0.353410325	0.323140862	-6.791609608
H 	-3.445659058	-0.021219659	-5.560136943
C 	-2.804587423	-4.539790812	-3.102948041
H 	-2.677217727	-6.602168589	-2.987126103
H 	-4.796435745	-4.071946761	-3.420621774
H 	-2.289918944	-3.751358806	-1.259578202
H 	4.451877295	-7.148700401	-4.928842127
H 	1.490786779	-8.064345048	-3.678224969
H 	1.878580463	-7.702105809	-6.976856456
H 	10.185506233	1.560314981	3.750150307
H 	8.057106811	-0.807338300	4.748267326
H 	10.381040825	-1.536796300	2.450875743
N 	5.888628281	-1.531752886	0.075211383
C 	4.864007778	-1.592607888	-2.374041085
N 	2.722497361	-3.099843845	-2.529413460
C 	7.286631398	0.711190585	0.965921566
H 	4.713214909	-2.223630318	1.421146063
C 	1.723742427	-4.099995002	-4.915852093
H 	2.358253236	-4.185625390	-0.999526622
H 	8.413147710	1.323482050	-0.650668798
C 	2.407482246	-6.918972670	-5.141053326
C 	9.082974930	-0.067155764	3.108001906
H 	6.759396581	5.286649410	-1.347865470
H 	2.745910122	-3.072248117	-6.389319854
C 	5.524483689	2.888181782	1.699892591
C 	3.858912663	2.711019315	3.758090369
C 	2.219881215	4.687870847	4.357516277
C 	2.220452895	6.897209980	2.912140731
C 	3.873290493	7.104698015	0.868953860
C 	5.502635431	5.115532593	0.270401478
H 	3.821095010	1.017707261	4.927116883
H 	0.941614963	4.505402351	5.959965386
H 	0.941252967	8.439827241	3.375833583
H 	3.889077851	8.813250881	-0.275907724
C 	-1.162182001	-3.438700690	-5.249930237
O 	5.791720140	-0.449830029	-4.176175985
