42

C 	-1.802223953	-4.907115077	-8.224663600
H 	-3.694694606	-4.343506005	-8.842162342
H 	-1.743738656	-6.972089892	-8.245864794
H 	-0.457962805	-4.214644629	-9.638771709
H 	-1.349291469	-0.022724970	-3.869529600
C 	-1.707465602	-0.923094421	-5.692413863
H 	-0.485328289	-0.014204749	-7.092539841
H 	-3.670210080	-0.533812144	-6.219429442
C 	-3.056929676	-4.987126475	-3.643766591
H 	-2.836935931	-7.039180163	-3.514362212
H 	-5.019966139	-4.618037945	-4.184163694
H 	-2.793968965	-4.186926935	-1.753844836
H 	4.517251781	-7.134178016	-4.573233106
H 	1.529824912	-8.209226538	-3.531417981
H 	2.169963183	-7.927712300	-6.798593485
H 	10.350951421	1.343946427	3.069659872
H 	8.243846176	-0.858484409	4.444765469
H 	9.956524318	-1.694478373	1.697868988
N 	5.065197423	-1.118096112	0.275366899
C 	4.399910179	-1.585667052	-2.225728594
N 	2.301479156	-3.132850118	-2.476244881
C 	6.875029570	0.882570882	0.927161562
H 	3.717893759	-1.451187470	1.585774012
C 	1.615601694	-4.280366159	-4.898423577
H 	1.796949404	-4.121909373	-0.924953742
H 	7.730876023	1.406470011	-0.875207930
C 	2.487444251	-7.052736834	-4.956282697
C 	8.975660074	-0.142563030	2.647546378
H 	6.074931940	5.383062000	-1.429856246
H 	2.734882430	-3.247590333	-6.293509606
C 	5.541947851	3.218693124	1.976347054
C 	4.499312522	3.269756694	4.413336527
C 	3.239007847	5.405116532	5.308701349
C 	3.005133899	7.545048537	3.785061120
C 	4.038534265	7.524993246	1.360503716
C 	5.290289848	5.381603220	0.469508557
H 	4.675527754	1.638233830	5.651258500
H 	2.448334456	5.400651418	7.206528359
H 	2.029737922	9.213251703	4.484553279
H 	3.871512321	9.181464630	0.154493831
C 	-1.237290419	-3.799278745	-5.585870459
O 	5.575574981	-0.721595894	-4.030288901
