27

H 	1.181898899	-1.770178160	-0.096650044
C 	0.000000000	0.000000000	0.000000000
C 	0.184154374	-1.351290436	0.000000000
C 	-0.849377669	-2.347333885	0.000000000
O 	-0.693544338	-3.560923975	-0.124997486
H 	-1.012471250	0.382771401	0.114654888
H 	0.243748352	-0.556808950	-2.830319860
H 	-0.614707093	1.110076212	-2.796019900
H 	-1.553393360	-0.435890445	-2.348147477
C 	-0.610260066	0.052527182	-2.561178820
Cl	-2.558597367	-1.766557285	0.195712793
C 	1.236637749	1.215589291	1.719919567
C 	1.111165949	1.014130995	0.173678739
C 	0.726556882	2.370639445	-0.462159646
C 	2.463054748	0.532190984	-0.393383337
H 	2.382584336	0.295650531	-1.459596925
H 	2.009358646	1.966680570	1.922500207
H 	1.517228677	0.279786299	2.214146045
H 	0.293802389	1.567717193	2.154218045
H 	1.439483909	3.142570548	-0.151002422
H 	-0.275459289	2.687497032	-0.148433331
H 	0.744704362	2.316235440	-1.554262421
H 	3.214992866	1.319947740	-0.271906288
H 	2.833246178	-0.358006366	0.126254550
Zn	0.951804358	-4.653331600	-1.030769442
Cl	1.047330589	-6.510857489	0.005746964
Cl	1.687389000	-3.279126454	-2.518849953
