27

H 	1.591376990	2.451836100	-0.435423200
C 	3.307262180	1.189270220	-0.470697060
C 	1.967561740	1.434147030	-0.363227640
C 	0.949051110	0.481237190	-0.021495260
O 	-0.231616520	0.735166980	0.223139740
H 	3.649788610	0.157394050	-0.409350040
H 	2.895048640	1.914534950	2.281623720
H 	4.683571290	1.363293940	2.248599990
H 	3.314653180	0.102618470	2.128193090
C 	3.632533680	1.138833570	2.110446120
Cl	1.441340750	-1.262457660	0.073074760
C 	4.342295520	1.949473420	-2.551436040
C 	4.315775270	2.188140130	-1.004812000
C 	5.733412730	1.905074270	-0.451520130
C 	3.924124000	3.653590480	-0.716430960
H 	3.803635060	3.826269050	0.358665460
H 	5.078551550	2.624383240	-3.005124630
H 	3.361382680	2.148850010	-2.995971670
H 	4.629223680	0.918636110	-2.790809430
H 	6.470022370	2.499381970	-1.004673400
H 	6.000415790	0.846432420	-0.558953850
H 	5.809925190	2.175220540	0.605718250
H 	4.708304840	4.323808590	-1.086865150
H 	2.990186030	3.935203850	-1.215356340
Zn	-1.048971880	2.687152620	0.694300350
Cl	-2.813911670	2.898992340	-0.482742600
Cl	0.404174480	3.489379070	2.071623740
