27

H 	1.609936455	2.482852327	-0.497281809
C 	3.314675866	1.204722750	-0.494984346
C 	1.978790671	1.464900625	-0.407709530
C 	0.950575840	0.517855986	-0.081869461
O 	-0.236289035	0.769551244	0.119899144
H 	3.645186165	0.170650304	-0.416150095
H 	3.070381866	2.094408656	2.248906943
H 	4.691129160	1.151113090	2.249166456
H 	3.072541987	0.231386128	2.171626797
C 	3.615551886	1.167336087	2.120907330
Cl	1.443312360	-1.224389884	0.055341979
C 	4.386354769	1.960311419	-2.555480320
C 	4.345349676	2.188314709	-1.008379031
C 	5.746335236	1.871646359	-0.434540746
C 	3.976873059	3.657836994	-0.714851971
H 	3.851816321	3.826787356	0.359882822
H 	5.139991816	2.623683428	-2.996210837
H 	3.414546695	2.181478647	-3.008682752
H 	4.655136269	0.925989005	-2.799368393
H 	6.506948949	2.451789838	-0.969201119
H 	5.990643131	0.808162589	-0.544882318
H 	5.808676983	2.131414926	0.625936221
H 	4.774764181	4.316511653	-1.075747750
H 	3.051024731	3.957986329	-1.217078812
Zn	-1.164554694	2.635477499	0.734384024
Cl	-3.116607156	2.612929419	-0.115837547
Cl	0.386024105	3.595155467	1.882700940
