27

H 	0.16195800	-1.95099400	0.20489100
C 	-0.90500500	-0.10754100	0.78213400
C 	0.25255300	-0.85680900	0.25287100
C 	1.50061500	-0.28758500	-0.11615400
O 	2.39151500	-1.11327500	-0.65227800
H 	-0.69061300	0.96031600	0.69613200
H 	-1.83074400	0.11512200	2.74511200
H 	-0.08192400	-0.10234500	2.80584500
C 	-0.99428700	-0.43271400	2.30578400
H 	-1.13324800	-1.49959100	2.49669800
C 	-1.97333400	-0.03123100	-1.51863700
C 	-2.24877200	-0.35573700	-0.03342000
C 	-3.32122300	0.62252600	0.48365300
C 	-2.77156900	-1.79864600	0.09130900
H 	-3.01671400	-2.06445400	1.12292300
H 	-2.90022100	-0.09079500	-2.09736900
H 	-1.26569900	-0.73896900	-1.96454300
H 	-1.56113800	0.97398100	-1.64216100
H 	-4.21542900	0.55182400	-0.14434700
H 	-2.97180100	1.65881300	0.44346500
H 	-3.63242300	0.40511700	1.50851600
H 	-3.68852600	-1.90790700	-0.49640200
H 	-2.06240800	-2.53941300	-0.29158900
H 	2.03987800	-2.02266500	-0.75778400
Al	2.09293000	1.70734200	0.14068700
F 	1.81903300	1.95472800	1.79095600
F 	0.98023400	2.52272200	-0.84130000
