33

H 	2.636746461	0.044103657	1.560800171
C 	4.100243099	-0.261751557	0.058538313
C 	2.988991754	-0.572368248	0.739291692
C 	2.005242180	-1.574377451	0.282601792
O 	0.776775614	-1.245520189	0.165600203
H 	4.356358371	-0.850027803	-0.825597588
C 	4.644338437	1.691115698	1.590563159
C 	5.027908113	0.901162945	0.324319583
C 	4.960371407	1.836039972	-0.915631168
C 	6.469534458	0.342668054	0.466670291
H 	6.763203966	-0.228628574	-0.422668245
H 	5.349036217	2.516926957	1.740155619
H 	4.677050808	1.055325328	2.483771495
H 	3.638692914	2.117293712	1.507358548
H 	5.654453728	2.675277051	-0.786496299
H 	3.949243644	2.234038342	-1.049052693
H 	5.236507045	1.300290620	-1.831631129
H 	7.181098262	1.167987362	0.589117314
H 	6.552688918	-0.313403903	1.341567690
N 	2.365166932	-2.837739848	-0.023419509
C 	1.382257120	-3.755423178	-0.624678448
C 	3.660993944	-3.438437918	0.321440096
H 	0.555980059	-3.180764658	-1.040364666
H 	0.994705799	-4.447494336	0.134012846
H 	1.879463759	-4.331603704	-1.412325088
H 	4.241214688	-3.644138646	-0.586731010
H 	3.483829493	-4.386004536	0.844291068
H 	4.226983441	-2.768820965	0.966703072
Sn	-0.120800370	0.679385973	-0.680516676
Cl	0.466257629	1.708063802	1.396658669
Cl	-2.056165043	-0.688095994	-0.748648922
Cl	-1.090227819	2.654493326	-1.645286919
Cl	1.509812564	0.366903492	-2.410919271
