12
C4H7O optimized with ADF in AMS.
C        0.07505639207284       0.46276687476235       0.14773654292377
C        0.88075823871136      -0.76750988655479       0.34642363310636
H        0.31765365151616      -1.64564029577421       0.00840263896469
C       -1.24371201367940       0.48863802480936      -0.40660160720277
H        0.49792933394859       1.42525087362828       0.43795508999423
O       -1.90579448438323       1.52286145563463      -0.57669967804654
C        1.35424716188631      -0.97133652059447       1.80033532511785
H        1.96964360770616      -1.87354028994927       1.87438434122878
H        0.50277879363723      -1.08164452047202       2.47874975576934
H        1.95391716953570      -0.12299460655583       2.14532894748479
H        1.77623481205348      -0.70576186085382      -0.29461415499940
H       -1.67072080300520      -0.50057333808022      -0.69198891434109
