8

H 	0.101859045	-3.511710179	-0.985145940
C 	-1.624647771	-0.003155566	-0.094686085
C 	0.355890849	-1.523115211	-0.519391001
C 	2.990786911	-0.606242588	-0.388933711
H 	-1.377800555	1.986713554	0.370623168
O 	4.852321344	-1.911736250	-0.763707754
H 	3.174969221	1.443443463	0.091251161
H 	-3.559814671	-0.688133420	-0.198355978
