8

H 	0.172867344	-3.419781110	-0.964242125
C 	-1.725648755	-0.009804733	-0.093592722
C 	0.338126000	-1.420312129	-0.496660129
C 	2.952592303	-0.401976263	-0.342823179
O 	3.507176374	1.774907337	0.150620575
H 	-1.555860183	1.982550922	0.378797718
H 	-3.613873301	-0.806252009	-0.223805587
H 	4.463527054	-1.822405393	-0.727576852
