65

C 	-0.183976498	0.924383326	0.196965889
C 	2.355200289	-0.181274624	-0.228310663
C 	3.585505878	-2.071673605	1.610677392
O 	5.738267422	-2.941275168	1.338748146
H 	5.543509243	-9.002425750	-7.202374311
H 	-1.591161038	-0.600529376	0.283656527
H 	3.881066886	1.317505735	-0.691383571
H 	13.900515873	0.612500866	1.643452689
H 	11.827207920	-1.752281033	2.781107424
H 	4.716553885	-8.627148460	-3.986095880
H 	13.494742674	-2.250074787	-0.069557738
C 	-0.284666832	2.370479140	2.731836576
H 	1.115733270	3.877339061	2.769009190
H 	7.795002477	-7.864779462	-5.022921462
H 	-2.158472467	3.189202511	2.975075395
H 	0.087500896	1.071220960	4.284022523
N 	8.539656087	-1.548497315	-1.236753089
C 	7.795433940	-1.983276752	-3.707561285
N 	5.638655650	-3.491915415	-3.840438039
C 	10.372881781	0.370657383	-0.475515319
H 	7.505508303	-2.344365847	0.159934419
C 	5.028194875	-5.035719992	-6.058013675
H 	5.126670129	-4.287226497	-2.180368270
H 	11.163900520	1.089592972	-2.240814562
C 	5.795826912	-7.796686923	-5.545802653
C 	12.526299836	-0.823445343	1.069713204
H 	9.378868341	5.081231437	-2.307958364
H 	6.227206392	-4.306783839	-7.574926371
C 	9.080800119	2.578245911	0.886315964
C 	8.193420579	2.373070390	3.376103644
C 	6.976769528	4.389142734	4.557621417
C 	6.628076734	6.667294466	3.277265828
C 	7.503729182	6.901867399	0.803512361
C 	8.712813090	4.875667483	-0.374190188
H 	8.441014103	0.623905042	4.424615179
H 	6.306558032	4.182336738	6.491317841
H 	5.690596416	8.245271905	4.203830105
H 	7.253388867	8.669945541	-0.216051008
C 	2.211883290	-4.630812853	-6.938718834
C 	1.662357660	-6.279626015	-9.281825859
H 	-0.177250433	-5.779493877	-10.086864646
H 	1.602811180	-8.295027052	-8.828981528
H 	3.084162330	-5.997220505	-10.760043635
C 	1.864476965	-1.833344880	-7.684176862
H 	3.132373628	-1.307492870	-9.232048866
H 	-0.078528722	-1.487919744	-8.308565920
H 	2.262592994	-0.574711219	-6.096594531
C 	0.289072388	-5.292458693	-4.847653918
H 	0.446161768	-7.259090851	-4.225340668
H 	-1.641381643	-5.029092911	-5.547330440
H 	0.507614641	-4.071339611	-3.195725714
H 	1.799484351	-1.343466887	-1.811275902
C 	-2.163699544	6.022507592	-5.917056565
C 	-0.057913378	6.533269723	-4.397636315
C 	0.580780830	4.888523309	-2.425142908
C 	-0.886311146	2.733014764	-1.972069769
C 	-2.992097311	2.222252633	-3.491490000
C 	-3.630791520	3.866999047	-5.463983407
H 	1.064744623	8.182722500	-4.744340002
H 	2.192184690	5.279372170	-1.262441931
H 	-4.114755313	0.572799875	-3.144786313
H 	-5.242195380	3.476150205	-6.626684403
H 	-2.652445402	7.281111508	-7.426461248
H 	2.461056151	-2.609735173	3.202724711
S 	9.399967775	-0.703632020	-6.443826264
