24

C 	 -0.356231	  0.292958	  1.103986
C 	  0.066572	  0.338633	 -0.201980
C 	 -2.096989	  0.559527	 -1.296441
H 	 -0.453321	 -0.644059	  1.646688
C 	 -0.715128	  1.492157	  1.843902
H 	 -2.426376	 -0.472610	 -1.306841
H 	  0.239292	  1.332592	 -0.617169
H 	 -1.793013	  1.001283	 -2.238522
H 	 -2.561275	  1.214790	 -0.569884
O 	 -1.086039	  1.509579	  3.012672
H 	 -0.617830	  2.447547	  1.271685
C 	  2.307553	 -0.626073	 -0.455684
C 	  0.829596	 -0.774471	 -0.920179
C 	  0.792489	 -0.587058	 -2.450920
C 	  0.330698	 -2.186659	 -0.560970
H 	 -0.720019	 -2.324115	 -0.830245
H 	  2.933571	 -1.367856	 -0.962854
H 	  2.400879	 -0.775604	  0.623019
H 	  2.704360	  0.365973	 -0.694096
H 	  1.489079	 -1.280414	 -2.932304
H 	  1.087378	  0.428023	 -2.736998
H 	 -0.200605	 -0.780290	 -2.861463
H 	  0.913678	 -2.936853	 -1.104210
H 	  0.437803	 -2.403799	  0.504828
