24

C 	1.373461411	0.000000000	-0.000000000
C 	0.000000000	0.000000000	0.000000000
C 	-0.381995604	0.428401167	2.366048660
H 	1.950543404	-0.921317379	0.010248546
C 	2.147618269	1.230870196	-0.000000000
H 	-0.256162731	-0.566530543	2.776156382
H 	-0.481009774	0.970969543	-0.126553214
H 	-1.386047234	0.835339966	2.329322488
H 	0.429990165	1.128237178	2.520073733
O 	3.372553506	1.288155734	-0.012449290
H 	1.541797800	2.170360628	-0.003001110
C 	-0.899012648	-1.180382578	-1.953328813
C 	-0.880774858	-1.184713499	-0.397120532
C 	-2.331101814	-0.999297257	0.094655526
C 	-0.338676472	-2.540117438	0.094013881
H 	-0.266696512	-2.574810964	1.184438041
H 	-1.549302435	-1.981488159	-2.320362600
H 	0.102923754	-1.335002849	-2.361845575
H 	-1.280851387	-0.232722903	-2.346509819
H 	-2.980208226	-1.759043235	-0.351614896
H 	-2.727655624	-0.018876494	-0.189439038
H 	-2.409331237	-1.095579477	1.179427131
H 	-1.009735388	-3.345489404	-0.220345617
H 	0.648996351	-2.763411706	-0.317313730
