24

C 	0.586711040	-0.368788300	0.981812350
C 	1.063158900	-0.282683170	-0.306090000
C 	-1.032501240	0.039563570	-1.483428680
H 	0.451512240	-1.329072020	1.472818100
C 	0.202280420	0.791124940	1.775308090
H 	-1.437884960	-0.964930050	-1.443214140
H 	1.277823330	0.718677240	-0.683450660
H 	-0.678050630	0.399235300	-2.442980980
H 	-1.465434580	0.770883380	-0.811794380
O 	-0.225579030	0.742470220	2.926277930
H 	0.332726850	1.777764190	1.265120140
C 	3.314679330	-1.212415990	-0.647287650
C 	1.819418620	-1.398644100	-1.036947970
C 	1.719576520	-1.270206300	-2.573580770
C 	1.363852280	-2.810474200	-0.620918790
H 	0.297571170	-2.962389940	-0.812848370
H 	3.923352510	-1.981514660	-1.135213520
H 	3.458785510	-1.293171080	0.433287240
H 	3.691502030	-0.235713290	-0.968297530
H 	2.426450290	-1.958246190	-3.048607320
H 	1.965536470	-0.259060650	-2.913893010
H 	0.722637900	-1.521307570	-2.941297200
H 	1.914570950	-3.562568780	-1.194542290
H 	1.550265350	-3.010457320	0.437289850
