27

H 	  1.502943	 -1.655496	  0.145153
C 	  0.000000	  0.000000	  0.000000
C 	  0.450461	 -1.425905	  0.000000
C 	 -0.411630	 -2.569657	  0.000000
O 	 -0.113711	 -3.733769	  0.155155
H 	 -0.939295	  0.076226	 -0.559184
H 	  0.696165	  1.981777	 -0.574987
H 	  1.212943	  0.685311	 -1.679975
C 	  1.044728	  0.944764	 -0.628382
H 	  2.005381	  0.882143	 -0.104740
F 	 -1.760478	 -2.233256	 -0.208417
C 	 -0.920610	  0.927192	  4.151638
C 	 -1.941912	  0.882735	  3.196020
C 	 -1.644033	  0.582557	  1.863838
C 	 -0.319764	  0.345319	  1.466181
C 	  0.698954	  0.383945	  2.433976
C 	  0.400856	  0.674269	  3.766553
H 	 -2.971967	  1.074324	  3.488617
H 	 -2.441870	  0.528608	  1.126452
H 	  1.727804	  0.178498	  2.150238
H 	  1.198773	  0.696530	  4.505462
H 	 -1.153899	  1.149336	  5.190369
Ti	  0.714891	 -3.921128	  3.580136
Cl	  0.439135	 -5.945117	  2.793039
Cl	 -1.111509	 -2.731294	  3.346269
Cl	  2.446040	 -2.927050	  2.636109
Cl	  1.136411	 -4.071574	  5.735723
