27

H 	1.502942513	-1.655496186	0.145152844
C 	0.000000000	0.000000000	0.000000000
C 	0.450460904	-1.425905130	0.000000000
C 	-0.411629862	-2.569657028	0.000000000
O 	-0.113710708	-3.733769032	0.155154560
H 	-0.939294707	0.076226439	-0.559184452
H 	0.696165007	1.981777501	-0.574986752
H 	1.212942734	0.685311407	-1.679975408
C 	1.044727864	0.944763997	-0.628381862
H 	2.005380966	0.882142950	-0.104740018
F 	-1.760478008	-2.233256129	-0.208417016
C 	-0.920610061	0.927192200	4.151637700
C 	-1.941911515	0.882734652	3.196020379
C 	-1.644033212	0.582556935	1.863837747
C 	-0.319764182	0.345319302	1.466180961
C 	0.698954033	0.383944931	2.433975891
C 	0.400856321	0.674269325	3.766553395
H 	-2.971967406	1.074324436	3.488617479
H 	-2.441869541	0.528607995	1.126452030
H 	1.727803944	0.178497894	2.150238356
H 	1.198773265	0.696529596	4.505462388
H 	-1.153898706	1.149336038	5.190368627
Ti	0.714891432	-3.921128071	3.580136217
Cl	0.439134825	-5.945116539	2.793039117
Cl	-1.111509102	-2.731293519	3.346268664
Cl	2.446040355	-2.927050407	2.636108652
Cl	1.136411459	-4.071573989	5.735722966
