27

H 	1.189780984	-1.268730356	1.242194479
C 	-0.709026862	-0.085353695	1.120861822
C 	0.746850648	-0.339553019	0.892993774
C 	1.613953302	0.463665070	0.084079327
O 	2.750803008	0.226456779	-0.261305227
H 	-0.887215311	0.995805944	1.110138985
H 	-2.279381336	-0.497477381	2.572357064
H 	-0.683132611	-0.196041415	3.300374816
C 	-1.203523020	-0.669601542	2.459901436
H 	-1.025001529	-1.749487339	2.514245725
F 	1.011515033	1.663619583	-0.332059879
C 	-2.734931351	-1.735846037	-2.359783217
C 	-2.731103478	-0.354580803	-2.135441294
C 	-2.077912658	0.173213905	-1.018157440
C 	-1.440035845	-0.674107963	-0.099865601
C 	-1.441709999	-2.059611421	-0.337106265
C 	-2.085747339	-2.586641486	-1.457984723
H 	-3.230199292	0.313303403	-2.834132144
H 	-2.058827678	1.248690018	-0.856361628
H 	-0.931811833	-2.730347073	0.349454118
H 	-2.075257577	-3.660448059	-1.631140371
H 	-3.233253749	-2.145559411	-3.235307719
Ti	2.368151576	-2.364577140	-2.626110796
Cl	4.385114595	-1.529824637	-2.790856994
Cl	0.848902739	-0.827001991	-2.992013561
Cl	2.066165478	-3.340582069	-0.668440288
Cl	2.133434387	-3.910337786	-4.176078281
