29

H 	 -0.955593	 -1.921322	 -0.030884
C 	  0.000000	  0.000000	  0.000000
C 	 -1.077983	 -0.844183	  0.000000
C 	 -2.406426	 -0.318113	  0.000000
O 	 -3.465014	 -0.984209	 -0.072607
H 	 -0.200931	  1.071033	  0.075753
H 	  0.866777	 -0.098280	 -2.866547
H 	 -0.112980	  1.444101	 -2.487235
H 	 -0.986546	 -0.193316	 -2.725751
C 	 -0.069873	  0.364832	 -2.581225
H 	 -2.508837	  0.780400	  0.067337
C 	  1.567927	 -0.421093	  1.822211
C 	  1.434237	 -0.405909	  0.262908
C 	  2.420471	  0.644288	 -0.297532
C 	  1.770829	 -1.807934	 -0.287133
H 	  1.632932	 -1.851715	 -1.372572
H 	  2.600690	 -0.673602	  2.090455
H 	  0.896323	 -1.163769	  2.264162
H 	  1.332576	  0.559494	  2.252055
H 	  3.438539	  0.417196	  0.038386
H 	  2.166429	  1.651997	  0.053831
H 	  2.420857	  0.654237	 -1.391464
H 	  2.816142	 -2.049787	 -0.064565
H 	  1.147954	 -2.585091	  0.167583
Ti	 -3.950428	 -3.100368	 -0.395838
Cl	 -4.352293	 -5.276057	 -0.759275
Cl	 -6.067351	 -2.416406	 -0.327948
Cl	 -2.768336	 -2.796923	 -2.305660
Cl	 -2.878484	 -3.401387	  1.566434
