29

H 	-0.022678248	-2.438681242	-0.546729853
C 	-0.118728829	-0.365790239	0.033353629
C 	0.520365344	-1.539710525	-0.256532700
C 	1.966460145	-1.652449815	-0.152809693
O 	2.627600758	-2.662600015	-0.391018122
H 	0.506351489	0.508041026	0.214717269
H 	-0.127312170	-1.614164087	2.593873523
H 	-0.833411613	0.090863188	2.848261748
H 	0.993028904	-0.130264723	2.572090429
C 	-0.010256302	-0.538956152	2.530892141
H 	2.479993521	-0.714582311	0.178650498
C 	-1.692814272	0.079645714	-1.820415717
C 	-1.582035957	-0.064985664	-0.269704217
C 	-2.007554256	1.276189807	0.371441593
C 	-2.522562342	-1.196556851	0.202753232
H 	-2.465176205	-1.326110660	1.289008202
H 	-2.723106827	0.339561497	-2.093991195
H 	-1.421168661	-0.856471280	-2.319755366
H 	-1.028493444	0.869126278	-2.189937742
H 	-3.018203555	1.548478743	0.044212383
H 	-1.326942511	2.084855586	0.076827251
H 	-2.013202337	1.217683803	1.464443883
H 	-3.559471718	-0.953940762	-0.059374593
H 	-2.274610035	-2.153527750	-0.269771427
Ti	3.491538044	1.932908745	-1.124058544
Cl	5.061400493	0.452305004	-0.739607633
Cl	2.450426576	2.455683371	0.753851903
Cl	2.045446478	1.155461053	-2.587017624
Cl	4.410434249	3.752178270	-1.945582271
