29

H 	1.705346316	2.491645407	-0.390763974
C 	3.412885536	1.193075956	-0.450897639
C 	2.079343376	1.475920986	-0.323004188
C 	1.142705681	0.431053124	-0.053797599
O 	-0.084324302	0.574184563	0.154706826
H 	3.709144752	0.142319693	-0.413937795
H 	4.490670363	2.062999728	2.206105852
H 	4.273606078	0.211726636	2.114379045
H 	2.792447707	1.322776206	2.384344568
C 	3.836422051	1.203856472	2.122273352
H 	1.539474487	-0.600172832	-0.023800080
C 	4.382147486	1.990411372	-2.543970668
C 	4.464570404	2.139748201	-0.988196294
C 	5.879608007	1.713189233	-0.535006812
C 	4.197783637	3.611049435	-0.606608584
H 	4.191013533	3.743882512	0.480322422
H 	5.147584580	2.625522919	-3.005549825
H 	3.398631436	2.296822095	-2.913767115
H 	4.563189151	0.955004702	-2.855199680
H 	6.635119310	2.309721179	-1.058673369
H 	6.066119046	0.656657135	-0.763967948
H 	6.020342236	1.859478604	0.539972732
H 	4.984793859	4.248602192	-1.024759366
H 	3.240187170	3.967486007	-0.999897526
Ti	-1.427938185	2.291671025	0.406054569
Cl	-2.719580212	4.104092376	0.678073123
Cl	-2.998580534	0.754324507	0.757374678
Cl	-0.009101344	2.805621019	2.097088594
Cl	-0.860219424	2.746965007	-1.729499477
