4
BF3 optimized with ADF in AMS.
B        1.17999994227553      -0.00000000000000       0.00000000000000
F        1.18000001924149       1.14685310005619      -0.66213594417928
F        1.18000001924149      -1.14685310005619      -0.66213594417928
F        1.18000001924149       0.00000000000000       1.32427188835856
