64

C 	0.563191203	0.446799966	2.723136201
C 	2.274509380	-1.800714809	2.553333594
C 	4.956452708	-1.704386756	2.887042750
O 	6.390699789	-3.575076782	2.723840068
H 	9.837824197	-9.294506167	11.619815089
H 	1.693377930	2.069647308	3.345359293
H 	1.462185283	-3.641017471	2.117584425
H 	7.271453344	-12.480866265	-3.642417210
H 	8.354188330	-9.528060763	-2.491528590
H 	9.636590361	-6.799235447	9.400831494
H 	9.443546145	-12.348345630	-1.078563170
C 	-0.566572736	1.138838838	0.104277223
H 	-1.676934403	-0.414194216	-0.686057265
H 	10.486704540	-9.868180947	8.398815914
H 	3.855368897	-4.774338800	8.734982790
H 	-1.804493675	2.786607397	0.297105028
H 	0.938467095	1.601996576	-1.237891667
N 	6.322831069	-10.010872484	2.253200054
C 	5.913696330	-10.934792506	4.684639000
N 	5.904765711	-9.029574539	6.496783647
C 	5.603282320	-11.425400916	-0.024667861
H 	6.311102106	-8.105337610	2.057865603
C 	6.485337519	-9.503768901	9.166868017
H 	6.429681683	-7.302935671	5.862592069
H 	5.297777743	-13.360973270	0.623209509
C 	9.265084492	-8.815464789	9.693701645
C 	7.793535785	-11.440315466	-1.931376973
H 	0.897849549	-13.365239535	0.689819370
H 	6.274289050	-11.545353530	9.405211822
C 	3.099154000	-10.448850586	-1.108956372
C 	2.955894864	-8.289027210	-2.642610474
C 	0.635727377	-7.400877474	-3.532290094
C 	-1.599301940	-8.657830998	-2.909460873
C 	-1.486697866	-10.810249633	-1.388047926
C 	0.837376215	-11.690270221	-0.501143161
H 	4.662764248	-7.269974501	-3.163057546
H 	0.577231358	-5.727012592	-4.728737516
H 	-3.407786471	-7.975729005	-3.615271181
H 	-3.212251784	-11.816191875	-0.894262357
C 	4.484985296	-8.224572242	10.963842094
C 	5.115029548	-8.856129220	13.742643391
H 	3.576883832	-8.231331509	14.979916513
H 	6.838786148	-7.916703202	14.390656293
H 	5.351851009	-10.894241383	14.024639869
C 	1.846047467	-9.307045312	10.350932499
H 	1.795990323	-11.359114879	10.618083176
H 	0.416972000	-8.468483407	11.592618623
H 	1.305660648	-8.916689443	8.396044895
C 	4.408804370	-5.323284832	10.650571857
H 	6.229109648	-4.436827913	11.078348272
H 	3.012976064	-4.503030234	11.941960972
C 	-5.294733149	-0.631810277	8.403869381
C 	-3.447172974	1.223603713	8.715132993
C 	-1.562152608	1.537001581	6.893552377
C 	-1.498778186	0.021624325	4.721581539
C 	-3.363391929	-1.843573249	4.435742473
C 	-5.242600688	-2.165435447	6.256729148
H 	-3.468224391	2.432980623	10.378706673
H 	-0.135145483	2.994143941	7.164055390
H 	-3.370698082	-3.063196821	2.781954022
H 	-6.670804746	-3.621951495	5.995480861
H 	-6.761316977	-0.885204919	9.822667819
H 	5.771552132	0.187386263	3.306534114
O 	5.600710308	-13.196078679	5.173779697
