64

C 	0.516510413	0.515194786	2.696599250
C 	2.206593190	-1.745712497	2.525759448
C 	4.883982562	-1.690311093	2.896292713
O 	6.289706003	-3.572710277	2.744946419
H 	9.860868425	-9.232050888	11.653387510
H 	1.667656528	2.132319659	3.293597086
H 	1.378380748	-3.572487025	2.067937862
H 	7.337615623	-12.443913521	-3.617995485
H 	8.386746762	-9.495540429	-2.429077903
H 	9.621934685	-6.747541913	9.428935028
H 	9.474565772	-12.319926965	-1.027738816
C 	-0.644784607	1.190699348	0.104436357
H 	-1.782558698	-0.358619657	-0.652942989
H 	10.540661833	-9.799321632	8.439050791
H 	3.751275601	-4.866110666	8.697507253
H 	-1.867130329	2.848722316	0.299083590
H 	0.836847205	1.630849897	-1.270384148
N 	6.286810924	-10.009345586	2.270753172
C 	5.956399567	-10.956404812	4.698903862
N 	5.961113092	-9.059210679	6.511742492
C 	5.619335279	-11.426164308	-0.012284089
H 	6.276166644	-8.106173587	2.081786965
C 	6.530078505	-9.514253196	9.179088063
H 	6.427111278	-7.319471588	5.875879622
H 	5.327082236	-13.366773255	0.626839862
C 	9.290394784	-8.769798102	9.723928136
C 	7.830725558	-11.414616362	-1.892575813
H 	0.914080803	-13.328663243	0.765598786
H 	6.360024469	-11.558918665	9.423435150
C 	3.117487877	-10.473476079	-1.119829856
C 	2.976967975	-8.358434072	-2.709719656
C 	0.659146374	-7.485834591	-3.614140028
C 	-1.575894469	-8.714243140	-2.948369370
C 	-1.466175383	-10.823554288	-1.371892279
C 	0.854799566	-11.687811328	-0.470375301
H 	4.686039835	-7.364132978	-3.264539089
H 	0.602651576	-5.847360707	-4.856907246
H 	-3.382853802	-8.044988847	-3.665762792
H 	-3.193431964	-11.808318086	-0.847551313
C 	4.491046612	-8.271922826	10.960541763
C 	5.134166087	-8.852090384	13.745146409
H 	3.579447113	-8.255568645	14.973848981
H 	6.830251219	-7.858494006	14.382948175
H 	5.426596291	-10.878697649	14.051469785
C 	1.888567704	-9.439612434	10.354043120
H 	1.900708835	-11.488045885	10.642783276
H 	0.431271123	-8.632860724	11.582631326
H 	1.341033392	-9.085927079	8.395065280
C 	4.329068359	-5.378355268	10.614580474
H 	6.123649589	-4.434193767	11.023035119
H 	2.916711922	-4.585801335	11.903775069
C 	-5.257033377	-0.561409683	8.423601939
C 	-3.340641232	1.225357530	8.796100690
C 	-1.477992351	1.572689456	6.948466816
C 	-1.531735633	0.133254170	4.728334173
C 	-3.448127777	-1.653513024	4.355835404
C 	-5.310776640	-2.000844950	6.203469277
H 	-3.299515463	2.326851884	10.495005559
H 	-0.011517862	2.939971484	7.233512841
H 	-3.489253566	-2.755007396	2.656930554
H 	-6.777251148	-3.368126997	5.918423272
H 	-6.682382096	-0.827197357	9.837460765
H 	5.683839814	0.117030172	3.323209624
O 	5.651177958	-13.582118640	5.260096415
