64

C 	0.563191211	0.446799975	2.723136206
C 	2.274509373	-1.800714803	2.553333589
C 	4.956452704	-1.704386754	2.887042743
O 	6.390699795	-3.575076790	2.723840060
H 	9.837824194	-9.294506163	11.619815088
H 	1.693377938	2.069647309	3.345359287
H 	1.462185279	-3.641017480	2.117584420
H 	7.271453338	-12.480866273	-3.642417218
H 	8.354188336	-9.528060756	-2.491528581
H 	9.636590363	-6.799235446	9.400831503
H 	9.443546155	-12.348345632	-1.078563179
C 	-0.566572729	1.138838834	0.104277214
H 	-1.676934396	-0.414194224	-0.686057260
H 	10.486704545	-9.868180940	8.398815924
H 	3.855368905	-4.774338801	8.734982787
H 	-1.804493666	2.786607393	0.297105027
H 	0.938467097	1.601996583	-1.237891660
N 	6.322831062	-10.010872482	2.253200051
C 	5.913696327	-10.934792512	4.684639008
N 	5.904765710	-9.029574547	6.496783648
C 	5.603282329	-11.425400913	-0.024667853
H 	6.311102100	-8.105337617	2.057865607
C 	6.485337517	-9.503768899	9.166868012
H 	6.429681675	-7.302935674	5.862592070
H 	5.297777742	-13.360973270	0.623209509
C 	9.265084500	-8.815464795	9.693701655
C 	7.793535792	-11.440315470	-1.931376972
H 	0.897849546	-13.365239531	0.689819362
H 	6.274289047	-11.545353523	9.405211826
C 	3.099154008	-10.448850597	-1.108956368
C 	2.955894873	-8.289027207	-2.642610466
C 	0.635727368	-7.400877475	-3.532290094
C 	-1.599301946	-8.657831000	-2.909460874
C 	-1.486697873	-10.810249633	-1.388047930
C 	0.837376214	-11.690270217	-0.501143151
H 	4.662764248	-7.269974495	-3.163057542
H 	0.577231351	-5.727012597	-4.728737512
H 	-3.407786462	-7.975729003	-3.615271187
H 	-3.212251794	-11.816191878	-0.894262364
C 	4.484985289	-8.224572250	10.963842091
C 	5.115029541	-8.856129229	13.742643390
H 	3.576883834	-8.231331506	14.979916515
H 	6.838786146	-7.916703201	14.390656288
H 	5.351851008	-10.894241386	14.024639880
C 	1.846047471	-9.307045321	10.350932498
H 	1.795990323	-11.359114883	10.618083176
H 	0.416971991	-8.468483417	11.592618630
H 	1.305660642	-8.916689441	8.396044902
C 	4.408804378	-5.323284833	10.650571851
H 	6.229109649	-4.436827920	11.078348269
H 	3.012976065	-4.503030234	11.941960972
C 	-5.294733156	-0.631810285	8.403869379
C 	-3.447172982	1.223603716	8.715132989
C 	-1.562152604	1.537001577	6.893552370
C 	-1.498778177	0.021624320	4.721581534
C 	-3.363391923	-1.843573252	4.435742482
C 	-5.242600684	-2.165435451	6.256729152
H 	-3.468224393	2.432980619	10.378706673
H 	-0.135145490	2.994143939	7.164055400
H 	-3.370698089	-3.063196820	2.781954023
H 	-6.670804750	-3.621951504	5.995480869
H 	-6.761316988	-0.885204924	9.822667815
H 	5.771552131	0.187386260	3.306534117
O 	5.600710306	-13.196078679	5.173779696
