23

H 	1.922917665	0.927322337	0.009531550
C 	0.000000000	0.000000000	0.000000000
C 	1.356718767	0.000000000	0.000000000
C 	2.203234661	-1.167766966	0.000000000
O 	3.424056624	-1.161714378	0.036000477
H 	-0.505506050	-0.965738296	-0.004954466
C 	-2.634545486	3.353076100	0.043367014
C 	-1.248336595	3.569629575	0.010896744
C 	-0.370425797	2.491597151	-0.005203540
C 	-0.863522275	1.165284606	0.010498965
C 	-2.262728562	0.964928826	0.040398890
C 	-3.139526830	2.048142808	0.058398399
H 	-0.857726984	4.584203446	-0.001990975
H 	0.700032767	2.674959054	-0.030786455
H 	-2.651056356	-0.051429010	0.050849749
H 	-4.213078755	1.877738713	0.083107315
H 	-3.315826483	4.200700203	0.056295376
I 	1.255814908	-3.174805746	-0.066088886
Ti	5.145957480	0.406930943	0.196745746
Cl	6.765991466	1.923331723	0.344617853
Cl	4.267333286	1.104202410	-1.745507772
Cl	4.055559541	0.952236426	2.077463520
Cl	6.395327832	-1.426508551	0.196893678
