36

H 	2.197978793	-0.138783819	0.068738893
C 	0.000000000	0.000000000	0.000000000
C 	1.287452268	-0.728471754	-0.000000000
C 	1.449315938	-2.145685661	-0.000000000
O 	2.599713915	-2.670761259	0.112679057
H 	-0.814159320	-0.652196923	-0.337009548
H 	-0.896590368	1.779646964	-0.880090075
H 	0.277722744	0.966578436	-1.939110600
C 	0.059717925	1.248371655	-0.903700955
H 	0.844633989	1.935478021	-0.565018712
C 	0.614390033	-4.561571192	-0.075261503
C 	0.254978953	-3.073613899	-0.137671155
H 	1.098260636	-4.808715319	0.875073503
H 	1.310420639	-4.830913245	-0.875716756
H 	-0.289496430	-5.171257026	-0.177288448
H 	-0.466803496	-2.812428257	0.651300977
H 	-0.252894659	-2.832573652	-1.084254303
C 	-0.333707684	0.393885280	1.505792291
C 	-1.682399305	1.058450150	1.628393606
C 	-2.858381602	0.290232318	1.593922375
C 	-4.112743736	0.897403651	1.683851900
C 	-4.210989992	2.288765495	1.808234568
C 	-3.047790338	3.064365593	1.843050861
C 	-1.793910394	2.452804234	1.748965479
H 	-0.303072424	-0.518694187	2.111052581
H 	0.460995815	1.054221280	1.869886607
H 	-2.789163045	-0.793391986	1.508469001
H 	-5.012961785	0.287047372	1.665318109
H 	-5.186928727	2.763008461	1.880842614
H 	-3.115633318	4.145178707	1.944685980
H 	-0.891513506	3.060254364	1.780000211
Ti	4.636638939	-2.088183393	0.479205422
Cl	6.718652100	-1.352044542	0.879657538
Cl	4.445869092	-1.065007316	-1.528143918
Cl	3.754024650	-1.171964473	2.357854387
Cl	5.086658320	-4.271983832	0.485302630
