36

H 	1.589046687	2.250798267	0.524645871
C 	3.593322353	1.345942922	0.386036284
C 	2.115590715	1.321385649	0.323501598
C 	1.310565290	0.207128194	-0.057365172
O 	0.052913850	0.324508171	-0.185237200
H 	3.996045239	0.327445983	0.433680002
H 	5.185659988	2.165272769	1.626494103
H 	3.730933621	1.700303152	2.537093159
C 	4.091769804	2.148179371	1.605314863
H 	3.731249157	3.183128560	1.562664100
C 	0.917017071	-2.220587527	-0.757782645
C 	1.927412417	-1.155697530	-0.319377886
H 	0.407669568	-1.922122001	-1.679645464
H 	0.147974861	-2.369872511	0.006429650
H 	1.427176478	-3.173735812	-0.932089201
H 	2.714989931	-1.028420089	-1.077788712
H 	2.455247473	-1.469079324	0.594535494
C 	4.125368208	1.976352774	-0.975370152
C 	5.631684604	1.956279326	-1.054456231
C 	6.310568897	0.766670168	-1.367868792
C 	7.705581810	0.731617537	-1.421525072
C 	8.446722723	1.890513851	-1.159455162
C 	7.782592337	3.080595788	-0.845708552
C 	6.385807824	3.110501197	-0.789379536
H 	3.693404499	1.407099769	-1.805694301
H 	3.744593570	3.000948466	-1.048693391
H 	5.740202624	-0.135797997	-1.583666490
H 	8.215138316	-0.195351777	-1.675199829
H 	9.533046513	1.865578184	-1.203199508
H 	8.351002106	3.986192731	-0.645974064
H 	5.873410680	4.039780088	-0.548197304
Ti	-1.461578686	1.850129709	-0.145320037
Cl	-2.942973819	3.535181202	-0.089543347
Cl	-0.886036144	2.018177376	2.034873660
Cl	-0.187406845	2.780462358	-1.775888744
Cl	-2.879063884	0.226305418	-0.715819258
