29

H 	1.644392990	2.176989850	0.551784920
C 	3.615584890	1.229842400	0.237707620
C 	2.141038750	1.226698360	0.354173540
C 	1.225283700	0.137441990	0.265677940
O 	0.002630800	0.195936240	0.331154520
H 	3.969677230	0.195996070	0.154915590
H 	5.308716250	1.800349120	1.502630900
H 	3.877975590	1.284349050	2.409233650
C 	4.215929370	1.846865710	1.532253040
H 	3.912921420	2.891389490	1.662407220
I 	2.114638160	-1.900890200	-0.008197970
C 	3.517004100	1.176973370	-2.305147680
C 	4.093244070	1.959291700	-1.103508470
C 	5.634303890	1.914266060	-1.171202240
C 	3.614175030	3.426196190	-1.164433690
H 	3.982007470	4.012695980	-0.314588890
H 	3.868838310	1.617414950	-3.245967400
H 	2.421279980	1.199880690	-2.311964410
H 	3.832365960	0.126670880	-2.282375780
H 	5.968008790	2.280267780	-2.150623100
H 	6.010280700	0.890067400	-1.050516940
H 	6.101965860	2.546393470	-0.408407880
H 	3.995284200	3.897676030	-2.078792690
H 	2.521133890	3.497752960	-1.190795400
Sn	-1.766407960	2.289991670	0.074717960
Cl	-0.648944810	2.888829950	2.068373020
Cl	-3.147894310	0.401897070	0.179074190
Cl	-3.300315360	4.072691310	-0.187670740
Cl	-0.424542900	2.516814680	-1.861332680
