34

H 	2.049528632	-0.463922086	0.241579121
C 	0.000000000	0.000000000	0.000000000
C 	1.053501149	-0.828315514	0.000000000
C 	0.929681619	-2.302861242	0.000000000
O 	1.445122922	-2.974562524	0.954373149
H 	-1.003647131	-0.408877391	-0.124747954
C 	0.069806579	1.463032852	0.349540867
C 	-0.489904361	1.645453044	1.758565399
C 	0.331494098	1.408115254	2.870552353
C 	-0.188829148	1.471225891	4.164735761
C 	-1.540509114	1.774537513	4.361394151
C 	-2.364941409	2.018912765	3.258641534
C 	-1.841701370	1.951149313	1.962570548
H 	1.107297582	1.813786955	0.302214264
H 	-0.523635071	2.050308976	-0.363754372
H 	1.378295949	1.152964537	2.724020980
H 	0.455868489	1.261165973	5.013974265
H 	-1.949397156	1.813665295	5.368396487
H 	-3.416437255	2.257139201	3.405230332
H 	-2.489145684	2.135494977	1.106105764
N 	0.269412459	-2.958703475	-0.974585303
C 	0.026864782	-4.406501452	-0.853128973
C 	-0.151686704	-2.349453656	-2.243174362
H 	0.178567056	-4.713089206	0.180522425
H 	0.716342719	-4.962003700	-1.501518926
H 	-1.002245685	-4.615710829	-1.164338654
H 	-1.246591688	-2.313345209	-2.302484479
H 	0.223147435	-2.960658158	-3.073056099
H 	0.247837334	-1.340172933	-2.326796189
Sn	1.413343869	-2.463027287	3.194620113
Cl	3.245506291	-1.001353605	2.691406119
Cl	2.013577406	-4.741549775	3.415110668
Cl	1.311538208	-1.851041133	5.518382910
Cl	-0.914322597	-2.094426950	2.777403654
