31

H 	2.025428408	0.936779611	0.128238431
C 	0.000000000	0.000000000	0.000000000
C 	1.493558768	0.000000000	0.000000000
C 	2.309073194	-1.175325704	0.000000000
O 	3.555253311	-1.186562411	0.162434684
H 	-0.364182084	-0.878986371	-0.543476743
H 	-1.681666975	1.258837713	-0.570520107
H 	-0.300971622	1.343005550	-1.691633993
C 	-0.588529892	1.274156074	-0.636407402
H 	-0.228842398	2.175882738	-0.128413133
O 	1.645352128	-2.338501581	-0.195538375
C 	2.461951204	-3.550761301	-0.161595082
H 	2.962832466	-3.635071992	0.806718728
H 	3.211034767	-3.519444666	-0.957592260
H 	1.756006448	-4.367319768	-0.315146803
C 	-0.101197325	0.804369366	2.430157262
C 	-0.437660583	0.629157817	3.772732869
C 	-1.063608106	-0.556548211	4.149457126
C 	-1.356449730	-1.567892923	3.237015984
C 	-1.007988611	-1.376162443	1.898003380
C 	-0.396210971	-0.185813193	1.475276642
H 	0.401535466	1.719769241	2.130475185
H 	-0.213847152	1.385938075	4.519187758
F 	-1.395917485	-0.739583553	5.463560698
H 	-1.845049609	-2.477621760	3.575167873
H 	-1.219710777	-2.158072691	1.172480263
Ti	5.110970165	0.211449359	0.765095870
Cl	6.693424453	1.662882581	1.403705255
Cl	3.775625008	0.551377088	2.555094861
Cl	6.420240512	-1.600230712	0.699848096
Cl	4.601859564	1.267814108	-1.160151622
