27

H 	2.020155734	0.950902684	-0.013645029
C 	0.000000000	0.000000000	0.000000000
C 	1.498941934	0.000000000	-0.000000000
C 	2.351757268	-1.165410199	0.000000000
O 	3.621351912	-1.076747831	0.093211714
H 	-0.330349871	-0.393951269	-0.979943500
H 	-1.642884612	1.436391802	0.090042745
H 	-0.168146316	2.076647526	-0.674255228
C 	-0.549369389	1.441115914	0.133513684
H 	-0.242449119	1.874286878	1.091461572
N 	1.801375829	-2.400010668	-0.149504298
H 	2.417128434	-3.201552860	-0.070744118
H 	0.802851902	-2.542451601	-0.049273793
C 	-0.123781411	-0.881865880	2.389332556
C 	-0.684638679	-1.698034385	3.373319460
C 	-1.725076407	-2.553952065	3.018120923
C 	-2.221350963	-2.622121211	1.720253060
C 	-1.647344164	-1.796156164	0.746275743
C 	-0.598834234	-0.921042412	1.066992542
H 	0.699656574	-0.219841902	2.648969963
H 	-0.324411267	-1.678328475	4.398263936
F 	-2.276769639	-3.358800237	3.978222684
H 	-3.036027337	-3.301380359	1.484782088
H 	-2.029056118	-1.831897840	-0.273028506
Zn	4.637652127	0.316854392	1.193960996
Cl	3.169018891	1.109121147	2.614273245
Cl	6.692480022	0.468079172	0.607315680
