29

H 	0.21361800	-1.49471900	0.26555300
C 	-1.31534600	0.01147500	0.77816600
C 	-0.54654000	-0.88038100	-0.22477900
C 	0.11489300	-0.09764300	-1.33396800
O 	1.26642400	-0.21726600	-1.69471100
H 	-1.86852700	0.75336600	0.18347900
H 	-1.23802700	-1.55992400	-0.74129400
H 	0.26787500	0.14000800	2.29794500
C 	-0.30332700	0.79524300	1.63302600
H 	0.42306900	1.30671600	0.99357900
H 	-0.78389800	1.56169000	2.24404600
C 	-3.50530000	-1.29757000	0.63528300
C 	-2.42566300	-0.75492000	1.59783000
C 	-3.12607400	0.22687600	2.56384800
C 	-1.85022500	-1.92976900	2.41475900
H 	-1.09393400	-1.60081400	3.13299200
H 	-4.33640600	-1.72768800	1.20318900
H 	-3.13027300	-2.08784600	-0.02083500
H 	-3.91625800	-0.50208500	0.00369700
H 	-3.98338400	-0.25944400	3.04000000
H 	-3.50136000	1.11079800	2.03610200
H 	-2.46400200	0.56760900	3.36332500
H 	-2.64631100	-2.41869100	2.98620100
H 	-1.39722200	-2.69271800	1.77502300
H 	-0.56066000	0.63025500	-1.85307400
Sn	6.34588700	-1.40949900	-1.29425000
Cl	5.02244900	-2.16004100	0.45437200
Cl	7.00052500	0.77750400	-0.88510700
Cl	5.20410500	-1.52474600	-3.30161300
