29

H 	-1.793792740	-1.142942898	0.000364886
C 	0.000000000	0.000000000	0.000000000
C 	-1.350649936	-0.154034537	0.000000000
C 	-2.290673668	0.945130246	0.000000000
O 	-3.541641351	0.747213261	0.004670193
H 	0.419602347	1.005817088	0.001993367
O 	1.308984480	-4.766256293	-0.014318678
H 	0.342486952	-4.889698653	-0.015776858
C 	1.602792201	-3.422569978	-0.007848226
C 	2.965860008	-3.071312236	-0.004656591
C 	3.330748314	-1.725508760	0.000354878
C 	2.355482134	-0.726273739	0.002492252
C 	0.985571362	-1.068744359	-0.000544812
C 	0.620611036	-2.434106355	-0.005049737
H 	3.712480271	-3.861219202	-0.006693450
H 	4.384269612	-1.456414171	0.002464792
H 	-0.428546303	-2.721795230	-0.007183548
H 	2.644342562	0.322042582	0.005929695
C 	-2.973723957	3.417372384	-0.043248602
C 	-1.833397768	2.392783411	-0.005649742
H 	-3.625136229	3.315811507	0.830085592
H 	-3.593943356	3.284440325	-0.935012387
H 	-2.559348258	4.431232098	-0.053943344
H 	-1.206803795	2.545137550	0.885449324
H 	-1.161915414	2.529956055	-0.865343233
B 	-4.318697803	-0.739473718	0.024377374
F 	-3.876032401	-1.355053594	1.186956862
F 	-3.891615761	-1.378957261	-1.131159958
F 	-5.638154008	-0.381860310	0.029864187
