29

H 	2.554368990	0.634266040	-0.661683750
C 	4.279503800	-0.220632210	0.257405030
C 	2.995465090	-0.239662870	-0.194511330
C 	2.135200330	-1.400068930	-0.091544400
O 	0.940181440	-1.390729430	-0.514301150
H 	4.694342480	-1.125610230	0.700484190
O 	5.452228860	4.506993700	-0.638426730
H 	4.514664650	4.552143020	-0.901755940
C 	5.760145470	3.226031560	-0.239725580
C 	7.089288790	2.994492180	0.164256580
C 	7.467919800	1.723276610	0.595758450
C 	6.539049750	0.680981620	0.629312320
C 	5.206118330	0.899895390	0.213770010
C 	4.825757570	2.190310600	-0.221629310
H 	7.798232450	3.818567210	0.137368970
H 	8.494438110	1.547669570	0.910041270
H 	3.801028370	2.384513320	-0.532610300
H 	6.837131370	-0.308111680	0.969932940
C 	1.533265190	-3.768998320	0.701455560
C 	2.621776200	-2.700736720	0.526729130
H 	1.063453800	-4.016776250	-0.255010940
H 	0.746133600	-3.419927390	1.377982850
H 	1.975466900	-4.678945560	1.121933530
H 	3.433250120	-3.079621770	-0.113861130
H 	3.089998620	-2.468161980	1.492911590
B 	0.154136650	-0.119488030	-1.273725130
F 	0.925171770	0.147337210	-2.400321900
F 	0.165805590	0.910853140	-0.340238690
F 	-1.082428520	-0.647170220	-1.536076870
