24

H 	2.372138670	0.602490120	-0.321231590
C 	4.238154470	-0.273203790	0.241837520
C 	2.920742820	-0.297019880	-0.054471990
C 	2.084745330	-1.503835220	-0.041012110
O 	0.871230120	-1.508016300	-0.282201080
H 	4.719584710	-1.213267210	0.511072450
C 	6.460650060	0.733736130	0.622980010
C 	7.337597660	1.820413720	0.649184710
C 	6.891595820	3.098601860	0.298354510
C 	5.553446320	3.251384440	-0.073313310
C 	4.657870250	2.193539820	-0.105660790
C 	5.109984860	0.900943990	0.247853710
H 	6.815720380	-0.257969460	0.895463380
H 	8.374631570	1.674827000	0.943634270
H 	7.553050120	3.960677230	0.308881660
F 	5.110942170	4.501932380	-0.423104540
H 	3.630309630	2.379218860	-0.404052800
O 	2.756073930	-2.648866990	0.263877410
C 	1.946768190	-3.864536590	0.304123310
H 	1.482489510	-4.041930040	-0.670559340
H 	1.168193190	-3.773384330	1.067641110
H 	2.649010770	-4.661226220	0.554478350
I 	-0.583806190	0.789748520	-0.810226550
I 	-2.029038020	3.102433650	-1.322880960
