24

H 	2.375826962	0.605656142	-0.309823716
C 	4.239717985	-0.275724609	0.249985843
C 	2.921906898	-0.294809903	-0.042927748
C 	2.085322318	-1.499345747	-0.029466089
O 	0.874241245	-1.504082027	-0.278962761
H 	4.718872830	-1.217214141	0.515521900
C 	6.467951460	0.730485403	0.607534343
C 	7.342701115	1.818744245	0.627684072
C 	6.887979586	3.097536471	0.293726726
C 	5.544678033	3.246981222	-0.055659045
C 	4.651943372	2.188496339	-0.083998904
C 	5.112136052	0.896168765	0.253358823
H 	6.829614032	-0.261390096	0.868089928
H 	8.384271295	1.674374957	0.903701968
H 	7.544932771	3.962659298	0.299482559
F 	5.092430218	4.495857948	-0.384790902
H 	3.620269508	2.375158013	-0.365825280
O 	2.752668732	-2.643109157	0.282115281
C 	1.945472885	-3.858766123	0.305293145
H 	1.502483082	-4.035870763	-0.679028424
H 	1.150598121	-3.770031309	1.051452983
H 	2.643019292	-4.654571292	0.569347194
I 	-0.575249588	0.791129555	-0.828522217
I 	-2.021701862	3.098358504	-1.367622340
