34

H 	1.744012000	-2.064678000	-0.452436000
C 	3.395215000	-0.898254000	-1.124022000
C 	2.126890000	-1.071121000	-0.658116000
C 	1.201283000	0.006656000	-0.404083000
O 	0.036603000	-0.231783000	0.010293000
H 	3.745342000	0.116913000	-1.312106000
H 	3.366143790	-0.446486640	1.405915040
H 	3.890869370	-2.235929590	1.165741740
H 	5.070160560	-0.844627710	0.729961360
C 	4.106442680	-1.176167990	1.099686310
C 	0.475595000	2.455092000	-0.234039000
C 	1.579687000	1.464760000	-0.624079000
H 	-0.436659000	2.275197000	-0.810683000
H 	0.218261000	2.359303000	0.825499000
H 	0.811326000	3.480995000	-0.420501000
H 	1.847615000	1.583194000	-1.684556000
H 	2.500367000	1.667294000	-0.058726000
O 	7.237444000	-4.878342000	-2.185162000
H 	8.084110000	-4.488599000	-2.469824000
C 	6.328686000	-3.882493000	-1.942304000
C 	5.044253000	-4.276447000	-1.521257000
C 	4.082809000	-3.316599000	-1.255476000
C 	4.363445000	-1.934618000	-1.402869000
C 	5.658725000	-1.566577000	-1.833863000
C 	6.633897000	-2.520968000	-2.098877000
H 	4.828785000	-5.335762000	-1.410049000
H 	3.097388000	-3.636965000	-0.931021000
H 	5.897354000	-0.511843000	-1.955924000
H 	7.627425000	-2.217910000	-2.426637000
Ti	-1.274161000	-1.845269000	0.532172000
Cl	-2.549141000	-3.613751000	1.079933000
Cl	0.244077000	-2.207557000	2.173320000
Cl	-0.900013000	-2.535100000	-1.588433000
Cl	-2.822605000	-0.269320000	0.852951000
