34

H 	1.655002960	2.213068180	-0.727430010
C 	3.483936510	1.105584680	-0.771653460
C 	2.113432030	1.235516720	-0.633746010
C 	1.228227130	0.171853260	-0.273024300
O 	0.008816520	0.401883370	-0.008516690
H 	3.914272670	0.106033130	-0.761599330
H 	3.130290470	1.645919520	1.936773960
H 	4.923359660	1.865300790	1.471764330
H 	4.239668760	0.158542360	1.761190990
C 	4.064647340	1.216293330	1.593753500
C 	0.587606780	-2.284308860	0.095139990
C 	1.708883920	-1.268825130	-0.162463060
H 	-0.143580840	-2.276112870	-0.719936550
H 	0.051755260	-2.052801620	1.020788000
H 	1.008289950	-3.293124150	0.175479970
H 	2.264092690	-1.524085610	-1.076132250
H 	2.447376610	-1.302636890	0.654569700
O 	7.048546720	5.158783310	-2.455309080
H 	7.937562620	4.800256130	-2.632355580
C 	6.211306770	4.144033170	-2.061633450
C 	4.880253460	4.489224640	-1.766255180
C 	3.987318150	3.510553730	-1.354493990
C 	4.387732570	2.159879240	-1.222874490
C 	5.729358710	1.837806590	-1.525010210
C 	6.633739010	2.809599490	-1.942525560
H 	4.570580900	5.526744970	-1.863643420
H 	2.966331550	3.800450440	-1.122751280
H 	6.064718770	0.806494840	-1.425987190
H 	7.663816830	2.539366110	-2.172908790
Ti	-1.295594470	2.042817630	0.310762720
Cl	-2.576621290	3.870014630	0.635817500
Cl	0.242488480	2.654449460	1.879465330
Cl	-0.950775040	2.465416130	-1.889767520
Cl	-2.838445330	0.526628000	0.873812810
