34

H 	1.668157356	-2.090590772	-0.728313463
C 	3.449110082	-0.925952693	-0.945458845
C 	2.092761500	-1.093234746	-0.749420871
C 	1.170691903	-0.027182180	-0.506500425
O 	-0.032605761	-0.269585488	-0.193573480
H 	3.837405860	0.086259305	-1.039753507
H 	3.473387855	-0.087766567	1.779926342
H 	3.968702216	-1.866644409	1.582402266
H 	5.198372982	-0.516980896	1.201909599
C 	4.176584757	-0.819670975	1.400321750
C 	0.450059511	2.422963486	-0.321504562
C 	1.586984932	1.433283793	-0.603321753
H 	-0.369431657	2.292875800	-1.035117703
H 	0.037513437	2.273239977	0.680984976
H 	0.820489101	3.451063569	-0.398493859
H 	2.013337738	1.603919290	-1.602341112
H 	2.416668477	1.590452069	0.103015449
O 	7.104288330	-4.954015704	-2.469483345
H 	7.959218004	-4.572622695	-2.739523874
C 	6.245785376	-3.948319501	-2.102832140
C 	4.956633496	-4.324341718	-1.685914155
C 	4.043504275	-3.352201047	-1.305069676
C 	4.382994809	-1.979214145	-1.325602155
C 	5.685315387	-1.627514852	-1.740503907
C 	6.608340913	-2.592500786	-2.130181111
H 	4.694413748	-5.378751750	-1.669052455
H 	3.054083162	-3.663162326	-0.982192261
H 	5.972101858	-0.577729391	-1.760114508
H 	7.606281107	-2.300044724	-2.454434402
Ti	-1.230712107	-1.893453527	0.458361156
Cl	-2.393038650	-3.690461958	1.163888301
Cl	0.408483448	-2.153182978	2.014795370
Cl	-0.964822901	-2.670510657	-1.650567341
Cl	-2.829429145	-0.376184734	0.824095153
