33

H 	1.510363910	2.178925460	0.928035110
C 	3.577168470	1.465395700	0.485874860
C 	2.083195790	1.375596300	0.472109570
C 	1.321393470	0.338123480	-0.148909890
O 	0.054000800	0.406000620	-0.187302240
H 	3.990576810	0.462155630	0.670351030
H 	5.173757860	2.452840590	1.600942740
H 	3.731885800	2.081845020	2.578850000
C 	4.079015550	2.418156110	1.594360710
H 	3.706207880	3.435214020	1.425525840
C 	1.018204640	-1.900804640	-1.351632020
C 	1.995313190	-0.870324250	-0.772359710
H 	0.399124940	-1.455704980	-2.137154100
H 	0.343964450	-2.282419380	-0.577791990
H 	1.573081150	-2.743640680	-1.778210700
H 	2.685607920	-0.502385310	-1.546454120
H 	2.639480630	-1.328230890	-0.005051310
C 	3.487513470	2.973603800	-1.582499890
C 	3.957952900	3.380337660	-2.834477770
C 	5.021413120	2.684688150	-3.405504460
C 	5.624879050	1.600379950	-2.769968100
C 	5.138241750	1.205254070	-1.519226770
C 	4.076216060	1.888743660	-0.907302330
H 	2.649869760	3.504364570	-1.136323940
H 	3.508607830	4.216007890	-3.364207810
F 	5.489118670	3.076249440	-4.633215900
H 	6.453751160	1.083376780	-3.246621710
H 	5.598453440	0.358433750	-1.012870390
Ti	-1.535414740	1.739283030	0.400266140
Cl	-3.101656270	3.208059080	1.051241720
Cl	-0.751392580	1.344800500	2.486827540
Cl	-0.474577850	3.194443750	-0.982840610
Cl	-2.902980460	0.230577520	-0.505510560
