25

H 	0.727870922	-1.603794090	0.296761297
C 	-0.636176868	0.008709616	0.982183482
C 	0.536152147	-0.530378043	0.240187556
C 	1.383218999	0.136556144	-0.679293037
O 	2.276086879	-0.377590946	-1.366480303
H 	-0.546885832	1.096113143	1.074947437
H 	-1.687096404	-0.227611368	2.870007630
H 	0.082186598	-0.369200794	3.008168586
C 	-0.785046389	-0.615780123	2.385087467
H 	-0.868501771	-1.706437541	2.329224429
I 	1.131471099	2.330141316	-0.900088115
C 	-4.019121785	-0.777683817	-1.636994603
C 	-3.651011650	0.540035113	-1.334466764
C 	-2.557677831	0.789611296	-0.502276992
C 	-1.836548486	-0.276076134	0.059281544
C 	-2.200833527	-1.597225923	-0.261867187
C 	-3.289954828	-1.844560651	-1.099735196
H 	-4.214950266	1.372775867	-1.749016559
H 	-2.264429160	1.812595657	-0.279855853
H 	-1.631184688	-2.433674362	0.134254118
H 	-3.562347181	-2.869416191	-1.340490081
H 	-4.864207674	-0.970198638	-2.294083331
Zn	2.787010892	-2.424647170	-1.908220473
Cl	4.641276800	-2.231645565	-2.936131802
Cl	1.193535666	-3.663074067	-1.146651340
