34

H 	1.582219298	-1.414949721	-0.008904132
C 	0.000000000	0.000000000	0.000000000
C 	0.508240109	-1.269603972	-0.000000000
C 	-0.278407414	-2.474252912	-0.000000000
O 	0.262976986	-3.625594097	0.003057171
H 	-1.075400147	0.147776347	0.081846563
H 	0.467878409	0.227584533	-2.850398773
H 	-1.240928003	0.915341151	-2.523202426
H 	-0.964453154	-0.929220690	-2.587048395
C 	-0.558800631	0.073661578	-2.542172804
C 	-2.391227534	-3.431431139	-1.045629617
C 	-1.793456292	-2.479229717	0.011469840
H 	-2.018144113	-4.448862768	-0.903970422
H 	-2.124701105	-3.109343865	-2.059205342
H 	-3.483308931	-3.440025107	-0.966026208
H 	-2.094353118	-2.813557857	1.015652120
H 	-2.187189623	-1.468175296	-0.117939671
C 	0.152643860	2.493512903	-0.361425678
C 	0.826510654	1.246155973	0.255879139
C 	2.278843065	1.125421705	-0.252563807
C 	0.838175519	1.409622716	1.811311887
H 	1.321427603	0.551314534	2.288693349
H 	0.655576015	3.401948632	-0.011213190
H 	-0.903382065	2.559495001	-0.070909039
H 	0.209145438	2.477782943	-1.453917276
H 	2.816234856	2.059151951	-0.052095547
H 	2.306673561	0.941737888	-1.332273036
H 	2.823039363	0.316694214	0.244998282
H 	1.392596579	2.318435191	2.074025344
H 	-0.179025175	1.502418918	2.210304606
B 	1.893950667	-3.947124246	-0.039947084
F 	1.932760224	-5.315927328	-0.036046841
F 	2.414857448	-3.350293670	1.101711745
F 	2.342627708	-3.359552737	-1.217260082
