34

H 	1.663307800	2.320142190	-0.324802360
C 	3.426815240	1.170320890	-0.607089310
C 	2.080116010	1.324302710	-0.428332460
C 	1.130486290	0.242796300	-0.353695730
O 	-0.114653530	0.455440450	-0.201263420
H 	3.836831860	0.175803240	-0.777039290
H 	3.919110200	1.564749480	2.244175850
H 	4.911194310	0.065922430	1.720039340
H 	3.074582940	-0.079736610	2.026099190
C 	3.952048520	0.540733110	1.892470050
C 	0.832332050	-2.115063990	0.574483710
C 	1.529364590	-1.216398250	-0.467735900
H 	-0.254774340	-2.032212500	0.493521720
H 	1.120847410	-1.829996330	1.593452770
H 	1.121224960	-3.160118080	0.417253500
H 	1.241535700	-1.538200870	-1.480809540
H 	2.615162140	-1.325707290	-0.399919550
C 	5.822024930	1.966875840	-0.464853880
C 	4.382085680	2.304662580	-0.924186630
C 	3.934520820	3.652520250	-0.318417550
C 	4.376081200	2.411580980	-2.485634870
H 	3.376577530	2.664760600	-2.854101780
H 	6.520925710	2.712280740	-0.861609070
H 	6.135623310	0.980688750	-0.830641720
H 	5.905903800	1.973217440	0.626257010
H 	4.673031330	4.426248210	-0.557782200
H 	3.850125730	3.587837470	0.772419410
H 	2.968866210	3.981112770	-0.716100170
H 	5.076744640	3.196514660	-2.795672280
H 	4.690669600	1.469372300	-2.951021060
B 	-0.858560800	1.939338860	-0.021867950
F 	-2.176321920	1.597478560	0.145027120
F 	-0.581112430	2.627480020	-1.197543630
F 	-0.259586080	2.503839750	1.100882610
