34

H 	1.660360564	2.311211456	-0.343122242
C 	3.427791547	1.163479476	-0.597049253
C 	2.077855774	1.315738772	-0.439909926
C 	1.126687958	0.238026074	-0.378196704
O 	-0.118754741	0.453752173	-0.233187492
H 	3.839894169	0.170279303	-0.766598746
H 	3.840799296	1.557540333	2.243658182
H 	4.908240988	0.107770360	1.734913425
H 	3.074078138	-0.118566464	1.994800551
C 	3.925717196	0.540417194	1.881698452
C 	0.873514976	-2.094246317	0.606663311
C 	1.514306664	-1.222110421	-0.493446802
H 	-0.215121957	-1.999361283	0.589571015
H 	1.225687952	-1.793590009	1.600490398
H 	1.140201594	-3.145146153	0.453235412
H 	1.160364501	-1.559509655	-1.479135880
H 	2.600832650	-1.338076394	-0.489326795
C 	5.820150614	1.958072303	-0.467528600
C 	4.380026136	2.301122560	-0.914092159
C 	3.943256219	3.647046585	-0.297585075
C 	4.361217780	2.419659338	-2.473522747
H 	3.359344969	2.676716631	-2.831700063
H 	6.522035516	2.698204103	-0.868037674
H 	6.125604292	0.970373653	-0.835079599
H 	5.911598426	1.963451013	0.622694367
H 	4.677066142	4.420939819	-0.549461812
H 	3.879624667	3.580716938	0.794128123
H 	2.970869325	3.976804967	-0.676373848
H 	5.059793877	3.205891748	-2.783637599
H 	4.670268820	1.480934861	-2.948693651
B 	-0.846200084	1.937514087	-0.047230494
F 	-2.169750727	1.611428480	0.083249941
F 	-0.535710440	2.644681767	-1.202412535
F 	-0.268521391	2.477419358	1.096188452
