25

H 	2.013029656	0.955851353	0.050167231
C 	0.000000000	0.000000000	0.000000000
C 	1.492657541	-0.000000000	0.000000000
C 	2.267554891	-1.180632678	0.000000000
O 	3.535389167	-1.229589168	0.040075952
H 	-0.366451086	-1.005317571	-0.246133365
H 	-1.691879403	1.029198123	-0.903201936
H 	-0.337752906	0.737142561	-2.023487154
C 	-0.600511084	1.013425393	-0.996550467
H 	-0.222614905	2.024778867	-0.815614379
H 	1.734127275	-2.145705606	-0.050584014
C 	-0.991000250	0.732392321	4.172170255
C 	-1.130764205	-0.549413197	3.626595500
C 	-0.808658049	-0.778137036	2.287170018
C 	-0.365451486	0.275204938	1.469352678
C 	-0.211371666	1.556422991	2.030088521
C 	-0.529758049	1.783466326	3.370116144
H 	-1.489384593	-1.369691914	4.244290707
H 	-0.914880251	-1.776360983	1.866330385
H 	0.153291825	2.378880129	1.420060340
H 	-0.413446319	2.779801128	3.790555302
H 	-1.234644972	0.910039699	5.217069514
Zn	4.930827211	0.332686104	0.240817959
Cl	6.471347064	-0.411858138	1.529854869
Cl	4.214073476	2.041729482	-0.883914727
