25

H 	0.596983680	-1.709647180	0.055805660
C 	-0.658840560	-0.077403500	0.914570170
C 	0.488509890	-0.627692070	0.132087440
C 	1.421705490	0.181771820	-0.553961460
O 	2.400532660	-0.243524110	-1.243305420
H 	-0.538253490	1.008443420	1.028049060
H 	-1.682014370	-0.337557870	2.818742610
H 	0.091417790	-0.480913710	2.923890620
C 	-0.787299350	-0.718790120	2.313696180
H 	-0.864794000	-1.809141450	2.247134000
H 	1.305588300	1.277577760	-0.478520060
C 	-4.106602710	-0.724556420	-1.662441330
C 	-3.582323570	0.563199020	-1.493513950
C 	-2.470986270	0.764288820	-0.670611110
C 	-1.884268390	-0.314473360	0.012804230
C 	-2.406738550	-1.607895340	-0.176106170
C 	-3.514451070	-1.808651790	-1.002045600
H 	-4.039177040	1.409689620	-2.002076150
H 	-2.065256700	1.766623130	-0.542290250
H 	-1.952223780	-2.458904310	0.325616080
H 	-3.913794260	-2.812188860	-1.133756470
H 	-4.967833560	-0.882939500	-2.307990260
Zn	2.984494470	-2.207801760	-1.743929670
Cl	3.967333390	-2.034307540	-3.640892660
Cl	2.344228300	-3.577348990	-0.187041370
