25

H 	0.620569822	-1.704887769	0.103334225
C 	-0.664197073	-0.092815435	0.951304609
C 	0.488710058	-0.625291101	0.166893144
C 	1.384679407	0.198132605	-0.549746061
O 	2.352904196	-0.211341479	-1.261278424
H 	-0.550450007	0.991677900	1.079629441
H 	-1.703666458	-0.384801029	2.841205728
H 	0.069003371	-0.517333767	2.959825892
C 	-0.802308752	-0.752894204	2.339100922
H 	-0.870723271	-1.842527601	2.259114969
H 	1.245302061	1.291006375	-0.481405743
C 	-4.046731172	-0.713748149	-1.712975833
C 	-3.513646545	0.568418933	-1.533868279
C 	-2.426280650	0.760386319	-0.678934640
C 	-1.872506706	-0.321719671	0.026166500
C 	-2.403225618	-1.609508089	-0.172889779
C 	-3.487646103	-1.801279073	-1.030706015
H 	-3.944124519	1.417247875	-2.060357849
H 	-2.011461394	1.757674357	-0.544094902
H 	-1.973099125	-2.463059069	0.344789188
H 	-3.893962904	-2.800378416	-1.171018893
H 	-4.888903080	-0.865498086	-2.384134708
Zn	2.920076685	-2.178576794	-1.747641758
Cl	3.545961409	-2.124793779	-3.795699229
Cl	2.591662670	-3.436235144	-0.012698384
