25

H 	0.902762764	-1.592991409	-0.010463259
C 	-0.460714297	0.022128130	0.693931797
C 	0.608352046	-0.560156543	-0.169056666
C 	1.177114498	0.137839186	-1.255137062
O 	2.055454884	-0.323476781	-2.051890897
H 	-0.376673589	1.117921193	0.690926417
H 	-1.208702260	-0.061104436	2.737284725
H 	0.562239565	-0.219717058	2.606500601
C 	-0.393790887	-0.492441831	2.145918616
H 	-0.486247224	-1.583349102	2.176358547
H 	0.843380411	1.174319379	-1.433974919
C 	-4.207639827	-0.952729838	-1.288138785
C 	-3.856598004	0.384549121	-1.064515767
C 	-2.646256890	0.695393802	-0.439554810
C 	-1.784926314	-0.326509619	-0.009123930
C 	-2.136090432	-1.667656691	-0.252486896
C 	-3.342504568	-1.976036832	-0.883255691
H 	-4.525240677	1.184152929	-1.376115438
H 	-2.374511031	1.735459644	-0.268409265
H 	-1.462056294	-2.470333350	0.034134951
H 	-3.601356907	-3.015891440	-1.068270490
H 	-5.145858304	-1.194408919	-1.782548953
Sn	3.063860532	-2.475422493	-2.060710134
Cl	3.567728405	-2.255156565	0.363543986
Cl	0.859455000	-3.612375035	-1.824432515
