33

H 	2.087238986	0.760416643	0.061481314
C 	0.000000000	0.000000000	0.000000000
C 	1.488790387	-0.143251782	-0.000000000
C 	2.198140851	-1.384506803	-0.000000000
O 	3.466312631	-1.428488935	0.070869738
H 	-0.432389446	-0.743157083	-0.685710547
H 	-1.529186370	1.484992274	-0.457568763
H 	-0.067899223	1.619525605	-1.466771203
C 	-0.436973407	1.408285201	-0.456565563
H 	-0.042078284	2.173217261	0.221506446
C 	2.357193590	-3.940251881	-0.091871542
C 	1.453240248	-2.704053519	-0.089112091
H 	2.960959987	-3.986901721	0.819881146
H 	3.047465527	-3.924563662	-0.941248873
H 	1.747500196	-4.848061405	-0.153438209
H 	0.742887229	-2.736655734	0.749890940
H 	0.826881128	-2.673842540	-0.994237388
C 	-1.510967887	-0.950186567	3.965491278
C 	-0.458684752	-0.040724760	3.814744180
C 	0.030460486	0.262496352	2.541338904
C 	-0.530043084	-0.340994849	1.402402587
C 	-1.577923453	-1.259013180	1.561733819
C 	-2.071858699	-1.557077077	2.835250009
H 	-0.012906048	0.429297411	4.688323717
H 	0.856236728	0.961396893	2.435789430
H 	-2.012902218	-1.736711082	0.685455059
H 	-2.892737489	-2.262435555	2.945162619
H 	-1.890534226	-1.187457964	4.956679979
Sn	5.135442780	0.200959371	0.318275944
Cl	4.287824345	1.013491910	-1.760937600
Cl	6.475762086	-1.743432843	0.316937311
Cl	6.867818259	1.830082414	0.583479291
Cl	3.929787814	0.749603040	2.310362541
