31

H 	1.708482230	2.402766350	0.276156290
C 	3.576754470	1.196484900	0.142038020
C 	2.095526520	1.397013240	0.147420120
C 	1.111900670	0.371348780	-0.030822190
O 	-0.134819520	0.529186250	0.058864360
H 	3.791626520	0.124213140	0.105230780
H 	5.311331000	1.659650620	1.378308530
H 	3.840047130	1.277928850	2.311459620
C 	4.223581470	1.787459640	1.420477200
H 	4.004714700	2.855858350	1.523101820
O 	1.613952590	-0.859524220	-0.301806200
C 	0.632498390	-1.936473710	-0.438029810
H 	-0.040208870	-1.726400810	-1.274655260
H 	0.050579470	-2.028653360	0.483622430
H 	1.226369230	-2.832275790	-0.623306810
C 	4.124098710	3.215548570	-1.350147850
C 	4.644149710	3.777596350	-2.519098160
C 	5.162623350	2.927388300	-3.494515380
C 	5.166308550	1.542389110	-3.342906460
C 	4.636546280	0.998645300	-2.167573840
C 	4.127184030	1.823135120	-1.151084530
H 	3.718485900	3.876752810	-0.587903660
H 	4.651500160	4.852735470	-2.677405060
F 	5.683937810	3.471466210	-4.640893070
H 	5.577805510	0.911312610	-4.126266970
H 	4.631636530	-0.081568050	-2.035105470
Sn	-1.464146890	2.300735390	0.931687250
Cl	-0.590657670	3.520916000	-0.918456340
Cl	-0.005458990	2.045301170	2.805782180
Cl	-2.847553610	4.026840330	1.841314360
Cl	-3.132844150	0.670496640	0.551921320
