31

H 	1.954316278	2.149801579	1.149068527
C 	3.812387086	1.107081824	0.481342645
C 	2.340889845	1.236129193	0.709133689
C 	1.357357190	0.302211745	0.252031609
O 	0.110996634	0.476697955	0.284628069
H 	4.077627148	0.048403127	0.392109712
H 	5.711500820	1.684365395	1.373621401
H 	4.463243541	1.226311019	2.557469887
C 	4.643748791	1.746203493	1.609899916
H 	4.385661969	2.801470089	1.751541204
O 	1.857974059	-0.858545320	-0.237076252
C 	0.876666221	-1.812158111	-0.750508805
H 	0.294333863	-1.351678613	-1.553334901
H 	0.204346386	-2.127554000	0.052100694
H 	1.469021268	-2.649559201	-1.120394451
C 	3.922075552	3.140775103	-1.077464699
C 	4.082552309	3.717903698	-2.337199222
C 	4.347871607	2.882927160	-3.420039703
C 	4.455545475	1.500381533	-3.286393874
C 	4.287400226	0.940813544	-2.018144937
C 	4.037397141	1.750622535	-0.898383036
H 	3.697166581	3.784160805	-0.231426661
H 	3.994678963	4.790115950	-2.487493739
F 	4.506027602	3.438732668	-4.659616602
H 	4.664673030	0.886480062	-4.158094283
H 	4.355569064	-0.137483862	-1.895382323
Sn	-1.215227935	2.444923108	0.358169573
Cl	0.267287241	3.133907144	-1.375157520
Cl	-0.386934697	2.621984254	2.583440952
Cl	-2.607136659	4.389156269	0.380480585
Cl	-2.873065370	0.833693416	-0.131520238
