27

H 	0.700106914	-1.387517092	-0.238058597
C 	-0.800344546	-0.017323716	0.611981722
C 	-0.064530556	-0.689242722	-0.590027480
C 	0.570143458	0.339446392	-1.473791640
O 	1.772875060	0.512568319	-1.637511788
H 	-1.458682677	0.763628066	0.199010513
H 	-0.791467225	-1.231048502	-1.209777879
H 	0.924729307	-0.053002490	1.967197325
C 	0.235884040	0.672910281	1.522769366
H 	0.846152996	1.382263099	0.952894278
H 	-0.246361115	1.232113061	2.328483182
H 	-0.137015856	1.012313874	-2.011179371
C 	-2.856921407	-1.515766335	0.396003554
C 	-1.751907075	-1.022449687	1.359585579
C 	-2.444801393	-0.288268719	2.533384622
C 	-0.980027065	-2.241289972	1.912859105
H 	-0.185407898	-1.939302166	2.603402721
H 	-3.584851683	-2.128974775	0.939875917
H 	-2.457796388	-2.135259095	-0.414736449
H 	-3.397485140	-0.671718556	-0.051634284
H 	-3.205728047	-0.936957242	2.982920335
H 	-2.943892551	0.626784355	2.189151508
H 	-1.736683525	-0.015743116	3.321730316
H 	-1.664302186	-2.899027928	2.462198836
H 	-0.526257350	-2.835085957	1.111561644
I 	3.673482867	-0.879307864	-0.165972859
I 	5.585531883	-2.211299075	1.351450384
