20

H 	-0.115460707	-0.000191789	-0.230766343
C 	-0.157466288	-2.139002540	-0.024068954
C 	0.424363116	-0.914425457	-0.002478259
C 	1.830925270	-0.772842601	0.334883027
O 	2.455541824	0.284241146	0.383034775
H 	0.482862980	-2.988388702	0.221752920
C 	-4.176115125	-3.279815069	-0.916691148
C 	-3.217046916	-4.237965824	-0.587008685
C 	-1.913585541	-3.844703846	-0.298920257
C 	-1.536514771	-2.486666203	-0.334152790
C 	-2.520617337	-1.532871397	-0.669756430
C 	-3.821262188	-1.927326062	-0.956339721
H 	-3.484748044	-5.291125246	-0.553753392
H 	-1.169752984	-4.595562565	-0.042122132
H 	-2.269009669	-0.477564435	-0.706851118
H 	-4.566258478	-1.178166612	-1.212848423
H 	-5.195886756	-3.582153648	-1.142252094
H 	2.362979299	-1.723332808	0.565706181
I 	1.533300901	3.026346508	-0.164267491
I 	0.725027175	5.573092288	-0.668325515
