24

H 	-0.416851385	0.313953463	-0.847188280
C 	-0.331516459	-3.662112721	-0.086929182
C 	0.638684204	-1.298913207	-0.159824816
C 	3.185546482	-0.897658446	0.716466371
O 	4.374358045	1.129384354	0.788459230
H 	0.887682652	-5.161470742	0.643104961
C 	-2.524008476	-6.592655821	-2.950997484
C 	-2.911807435	-4.547123277	-0.885632125
C 	-4.596745760	-2.413209566	-1.907730231
C 	-4.170319133	-5.779284094	1.459383687
H 	-4.470570800	-4.392216124	2.962445777
H 	-4.355062232	-7.375537088	-3.509106980
H 	-1.347990538	-8.152127061	-2.270410382
H 	-1.626705837	-5.795612204	-4.634158192
H 	-6.438305139	-3.173408790	-2.458182013
H 	-3.769306823	-1.515446617	-3.575578249
H 	-4.926306981	-0.949716799	-0.485638946
H 	-6.010020471	-6.563422646	0.931998686
H 	-3.019991844	-7.319343919	2.223143687
H 	4.210222657	-2.576833918	1.406790435
B 	3.254696674	4.104931111	-0.170386062
F 	1.182007547	4.478381508	1.344100622
F 	2.714610090	3.754464881	-2.682682754
F 	5.290941332	5.577804626	0.341055208
