30

H 	1.737325412	2.336330205	1.153355165
C 	3.574401240	1.193090085	0.552579991
C 	2.103980080	1.437550941	0.668861261
C 	1.109351991	0.603224798	0.065968056
O 	-0.137090883	0.829453989	0.053901210
H 	3.761562329	0.112480004	0.583240296
H 	5.437351814	1.691930047	1.564368502
H 	4.049432394	1.491567673	2.661219250
C 	4.365094295	1.878225502	1.685576385
H 	4.203793559	2.961852728	1.679568131
O 	1.575783947	-0.510654571	-0.527470018
C 	0.587004738	-1.367404512	-1.182944381
H 	0.064961634	-0.803119814	-1.960372156
H 	-0.134415377	-1.733670315	-0.447503756
H 	1.168694193	-2.184676241	-1.609369671
C 	3.826266576	3.021861189	-1.219423171
C 	4.205718829	3.454123593	-2.493161401
C 	4.757089273	2.558109070	-3.415133557
C 	4.909407522	1.229855528	-3.024639056
C 	4.536928077	0.768881653	-1.766332728
C 	3.999924062	1.677643148	-0.844461949
H 	3.388489608	3.729866554	-0.521174638
H 	4.064168850	4.494425971	-2.775680650
H 	5.057627175	2.869392055	-4.411554268
F 	5.444968007	0.336995405	-3.915877215
H 	4.668384637	-0.280196235	-1.515604232
B 	-0.876098472	2.211791921	0.706749784
F 	-0.561693748	2.162239232	2.052878439
F 	-2.190329928	2.001578654	0.404054195
F 	-0.276898845	3.265313943	0.036628002
