27

H 	  1.989838	  0.959828	  0.026244
C 	  0.000000	  0.000000	  0.000000
C 	  1.476296	 -0.000000	  0.000000
C 	  2.361615	 -1.115729	  0.000000
O 	  3.598008	 -1.068992	  0.052856
H 	 -0.359632	 -1.025969	 -0.127473
H 	 -1.594347	  0.878411	 -1.216954
H 	 -0.155443	  0.418505	 -2.140238
C 	 -0.501166	  0.854274	 -1.196982
H 	 -0.130631	  1.882755	 -1.142076
Cl	  1.608830	 -2.754852	 -0.096763
C 	  0.035238	 -0.409521	  2.520633
C 	 -0.574820	  0.485294	  1.417979
C 	 -2.105475	  0.295699	  1.407938
C 	 -0.228707	  1.960843	  1.700795
H 	 -0.669337	  2.634235	  0.957600
H 	 -0.418112	 -0.170759	  3.489700
H 	  1.115885	 -0.252197	  2.611356
H 	 -0.143932	 -1.471778	  2.316107
H 	 -2.507759	  0.533345	  2.400448
H 	 -2.377537	 -0.741278	  1.174899
H 	 -2.602480	  0.954170	  0.688062
H 	 -0.630126	  2.246194	  2.680761
H 	  0.852846	  2.128709	  1.731610
Zn	  4.915180	  0.536902	  0.707334
Cl	  6.675393	  0.350585	 -0.472470
Cl	  3.717906	  1.519359	  2.203823
