27

H 	0.596936790	-1.641388520	-0.107404780
C 	-0.649224040	-0.026973200	0.758370340
C 	0.524220300	-0.562470620	0.034191330
C 	1.653057370	0.145959700	-0.468007280
O 	2.639112190	-0.350188520	-1.033725590
H 	-0.552767710	1.059949160	0.850377510
H 	-1.502931650	-0.266129130	2.761082060
H 	0.267212740	-0.359151520	2.720828920
C 	-0.648063880	-0.642340490	2.190675170
H 	-0.695970760	-1.735083020	2.157600700
Cl	1.649745100	1.943435460	-0.264883770
C 	-1.840864730	0.310041060	-1.461731270
C 	-2.001879260	-0.289189110	-0.044734260
C 	-3.153862370	0.442611240	0.678698920
C 	-2.328535640	-1.793914710	-0.151065630
H 	-2.491920740	-2.246905640	0.832818070
H 	-2.782800120	0.231204710	-2.017705230
H 	-1.069348160	-0.219787900	-2.035133470
H 	-1.560160300	1.369526600	-1.415912660
H 	-4.073846550	0.357155130	0.086588910
H 	-2.931783360	1.510152050	0.802083730
H 	-3.359575200	0.016077000	1.666464100
H 	-3.248666700	-1.929248510	-0.732833140
H 	-1.534328140	-2.354335020	-0.658209430
Zn	3.194925020	-2.406192820	-1.469303960
Cl	4.276492030	-2.266953180	-3.299529830
Cl	2.319468530	-3.568939430	0.120288680
