29

H 	  1.991164	  0.963863	  0.043275
C 	  0.000000	  0.000000	  0.000000
C 	  1.486260	 -0.000000	  0.000000
C 	  2.350233	 -1.136705	  0.000000
O 	  3.587673	 -1.012893	  0.249955
H 	 -0.367048	 -1.024359	 -0.143198
H 	 -1.606276	  0.859461	 -1.226619
H 	 -0.135647	  0.466322	 -2.130671
C 	 -0.513085	  0.863791	 -1.182216
H 	 -0.172178	  1.900673	 -1.095855
C 	  1.814859	 -2.529559	 -0.287669
H 	  1.276550	 -2.904022	  0.593446
H 	  2.652497	 -3.199505	 -0.494844
H 	  1.114689	 -2.532895	 -1.130368
C 	 -0.019701	 -0.509967	  2.496607
C 	 -0.566959	  0.455568	  1.420225
C 	 -2.107037	  0.356356	  1.401208
C 	 -0.142634	  1.897399	  1.772109
H 	 -0.506668	  2.622069	  1.035626
H 	 -0.442132	 -0.261397	  3.477181
H 	  1.070951	 -0.445216	  2.578302
H 	 -0.289416	 -1.549650	  2.270743
H 	 -2.501892	  0.546221	  2.406740
H 	 -2.438237	 -0.644152	  1.094373
H 	 -2.560664	  1.090229	  0.726996
H 	 -0.565564	  2.177034	  2.744492
H 	  0.945399	  1.995045	  1.848518
I 	  4.298763	  0.981891	  1.866941
I 	  4.994511	  2.935983	  3.745332
