29

H 	1.717406460	1.956119370	0.905646330
C 	3.600710690	1.047623710	0.177346680
C 	2.144666840	1.048549470	0.481985550
C 	1.214207960	-0.009600070	0.246368680
O 	-0.036038890	0.190777750	0.328825270
H 	3.899273330	0.055744780	-0.186439840
H 	5.475521990	1.300618980	1.295368800
H 	4.158161650	0.591435180	2.243314140
C 	4.397315400	1.339680660	1.479219020
H 	4.147891970	2.325225080	1.887203350
C 	1.695642690	-1.405145040	-0.119995850
H 	2.021991150	-1.417548680	-1.169325450
H 	0.871063610	-2.112581910	-0.003045370
H 	2.547346420	-1.717465830	0.495394160
C 	3.126855650	1.606024460	-2.261750640
C 	3.933078310	2.051866210	-1.019089710
C 	5.439631600	1.965533360	-1.346389570
C 	3.560351600	3.509091500	-0.669110830
H 	4.097293350	3.865893910	0.217202960
H 	3.373159670	2.240416710	-3.121802590
H 	2.047173210	1.683898780	-2.088767930
H 	3.360918570	0.568197460	-2.533156710
H 	5.656017720	2.555413920	-2.246059510
H 	5.746473650	0.929743630	-1.542938090
H 	6.062305310	2.361635560	-0.537185000
H 	3.830041270	4.167841150	-1.503792750
H 	2.484970000	3.624734700	-0.495339200
I 	-0.911423120	2.648524480	-0.217705770
I 	-1.845326240	5.157930910	-1.020331440
