29

H 	1.720147781	1.933805742	0.943947362
C 	3.607253869	1.050822350	0.199092074
C 	2.152218324	1.037318206	0.501841729
C 	1.223296588	-0.012832011	0.231958864
O 	-0.026672682	0.189161089	0.308374180
H 	3.918961277	0.057750687	-0.149029024
H 	5.476097084	1.364198660	1.309322400
H 	4.179705981	0.629720471	2.265632208
C 	4.397736857	1.375948783	1.493872326
H 	4.123355850	2.358067752	1.892564238
C 	1.700354171	-1.399894963	-0.165399725
H 	2.032261976	-1.386888521	-1.212314175
H 	0.870772014	-2.104453971	-0.071720079
H 	2.545974358	-1.732745700	0.446586504
C 	3.114041263	1.579288398	-2.244463360
C 	3.925273281	2.040235847	-1.011670966
C 	5.429362612	1.955671171	-1.347240983
C 	3.548288800	3.498832875	-0.675325183
H 	4.097838985	3.872841666	0.195415173
H 	3.359122159	2.202204943	-3.112606811
H 	2.035485977	1.661340042	-2.070182770
H 	3.345075589	0.538305682	-2.504616584
H 	5.638404032	2.534463441	-2.255180404
H 	5.738866345	0.918869497	-1.531918765
H 	6.055443511	2.363772755	-0.546999829
H 	3.797688048	4.146972302	-1.524035920
H 	2.475707960	3.608963019	-0.483931758
I 	-0.884780059	2.656832995	-0.214791750
I 	-1.780600133	5.191606984	-0.991530281
