33

H 	1.590260040	2.245758120	-0.410888030
C 	3.359389600	1.109443820	-0.798337100
C 	2.024507960	1.252447190	-0.483582710
C 	1.137399520	0.168530420	-0.184187350
O 	-0.081422840	0.387384900	0.123279410
H 	3.757249750	0.106820330	-0.947554770
H 	3.936076340	1.901532650	1.797706620
H 	5.370876010	0.888371290	1.167843280
H 	3.847391740	0.040219470	1.839677760
C 	4.338605900	0.942812270	1.493763240
C 	0.552916920	-2.286388330	0.293933570
C 	1.594419740	-1.279913520	-0.214618230
H 	-0.358645400	-2.252031020	-0.310471770
H 	0.270938850	-2.071712770	1.330047390
H 	0.964336040	-3.300892110	0.248208350
H 	1.879405900	-1.512366940	-1.252644370
H 	2.524365160	-1.358557950	0.366852020
O 	7.630514840	2.631757750	-2.696948710
H 	7.773697510	1.669423540	-2.745996940
C 	6.385109010	2.888161060	-2.161256920
C 	6.015941430	4.235632190	-2.026398440
C 	4.767123080	4.555821400	-1.486698720
C 	3.881717650	3.557814580	-1.080364340
C 	4.243839170	2.200664650	-1.213041930
C 	5.508165110	1.878746240	-1.755070540
H 	6.710864200	5.008623320	-2.344809390
H 	4.483753180	5.600712700	-1.382512160
H 	5.798945550	0.832367680	-1.856088360
H 	2.920804670	3.832956460	-0.656344400
Al	-1.093172140	1.969157880	0.225163220
F 	-2.502385280	1.495165400	0.998032790
F 	-1.231250910	2.424098660	-1.391454280
F 	-0.094156110	3.017769860	1.103069460
