33

H 	1.537005857	2.225457737	-0.653424622
C 	3.364790191	1.118202841	-0.813856486
C 	2.006093069	1.244553381	-0.634551932
C 	1.121473565	0.149509617	-0.377776113
O 	-0.101465725	0.359314752	-0.079426783
H 	3.795978925	0.119973691	-0.857660787
H 	3.873765545	2.155883813	1.722320773
H 	5.096862378	0.779541320	1.417380086
H 	3.363167723	0.387416019	2.002279758
C 	4.078571132	1.098878083	1.606701954
C 	0.502108031	-2.319755656	-0.071895000
C 	1.579238934	-1.295240075	-0.447681275
H 	-0.363198861	-2.244150947	-0.737302278
H 	0.146639775	-2.160482771	0.950966978
H 	0.910956531	-3.333243758	-0.145202914
H 	1.954790453	-1.480583154	-1.464952796
H 	2.455456337	-1.399304477	0.209907692
O 	7.794815526	2.592957329	-2.313976273
H 	7.953680256	1.633578398	-2.266088886
C 	6.494312056	2.864605996	-1.945972872
C 	6.088413842	4.207264280	-1.970877627
C 	4.779395366	4.536896847	-1.608848957
C 	3.869113262	3.552873338	-1.224307286
C 	4.269973753	2.200727363	-1.195639548
C 	5.593897329	1.870482536	-1.557033385
H 	6.801516961	4.970169068	-2.271829371
H 	4.467959753	5.578393240	-1.629220659
H 	5.911765963	0.827927729	-1.534530942
H 	2.858280426	3.834287473	-0.946544136
Al	-0.962730854	1.920013882	0.507424035
F 	-0.263114116	2.126018830	2.027381027
F 	-2.591321934	1.534037713	0.473358034
F 	-0.480609261	3.124126752	-0.580811758
