24

H 	-0.60516700	-0.02843200	-0.08747700
C 	-0.11287400	-2.03446900	-0.55454700
C 	0.18372800	-0.75669600	-0.27431700
C 	1.56648400	-0.25161500	-0.20072800
O 	1.89158300	0.90014000	0.05012100
H 	0.67976600	-2.75413500	-0.74146000
C 	-1.53938800	-3.99811600	-1.12388200
C 	-1.56315800	-2.54664400	-0.62746900
C 	-2.34703300	-1.65981300	-1.60511000
C 	-2.17624300	-2.46943500	0.77777200
H 	-2.17186700	-1.44045700	1.14036100
H 	-2.55294300	-4.39920100	-1.18858600
H 	-0.96284200	-4.62478000	-0.44091600
H 	-1.08165000	-4.05484200	-2.11321000
H 	-3.38291900	-1.99720100	-1.68136000
H 	-1.89668000	-1.69770400	-2.59853300
H 	-2.34616400	-0.62291300	-1.26676400
H 	-3.20792100	-2.82761400	0.76537000
H 	-1.60533700	-3.08297200	1.47702500
H 	2.32759900	-0.99311800	-0.39202500
B 	1.89498200	2.46376100	0.80043100
F 	1.24644100	2.08538400	1.89740000
F 	1.22343700	3.08163300	-0.16568900
F 	3.21520200	2.58982600	0.84697800
