27

H 	0.583614815	-3.237530519	0.658476523
C 	-1.623901658	0.138434495	1.802073805
C 	0.577626122	-1.175559921	0.674581714
C 	2.728074150	0.042445063	-0.434734670
O 	4.572977861	-1.056900805	-1.379585638
H 	-1.307601094	2.178546518	1.784436179
H 	-3.967478147	0.201895127	5.173853000
H 	-0.732785959	-0.387251257	5.799554718
C 	-2.281027121	-0.777155765	4.485172360
H 	-2.661669420	-2.810905590	4.525424642
C 	-8.112453450	-1.263080129	-3.017251607
C 	-7.220920027	1.206237772	-2.683352534
C 	-5.127596737	1.658391541	-1.128551641
C 	-3.925806870	-0.358772574	0.092350179
C 	-4.817340274	-2.828090457	-0.241548894
C 	-6.910663563	-3.280244225	-1.796349787
H 	-8.140561784	2.749825673	-3.617619260
H 	-4.445371553	3.547979602	-0.873043152
H 	-3.897698536	-4.371678357	0.692717831
H 	-7.592888766	-5.169832305	-2.051858277
H 	-9.714320390	-1.609080271	-4.207026822
H 	4.028440352	-1.196962600	-1.362866418
Ti	0.948723168	4.878817808	0.626051450
Cl	2.911363903	1.558202230	-0.530673060
Cl	-0.971219394	4.164204835	4.092981926
Cl	-1.726198467	5.910721693	-2.201743926
Cl	3.580946611	7.882142454	1.143640878
