31

H 	2.011226469	0.956560019	0.050439372
C 	0.000000000	0.000000000	0.000000000
C 	1.495530170	0.000000000	0.000000000
C 	2.322470831	-1.168747878	-0.000000000
O 	3.580145823	-1.072617004	0.160384685
H 	-0.344297874	-0.625572700	-0.838261293
H 	-1.667355064	1.391103950	-0.217649716
H 	-0.213230742	1.861183098	-1.127547072
C 	-0.573740580	1.422511173	-0.189756890
H 	-0.268313229	2.070853315	0.638995869
C 	2.751693361	-3.666725789	-0.377928483
C 	1.720813393	-2.547951443	-0.195712906
H 	3.408742331	-3.743540998	0.493720438
H 	3.384394471	-3.482832755	-1.252733074
H 	2.240360928	-4.625556610	-0.514527197
H 	1.083715530	-2.744363389	0.680052051
H 	1.025638418	-2.506771574	-1.046811851
C 	0.003125234	-0.355378470	2.541005663
C 	-0.511891006	-0.942485510	3.699205123
C 	-1.580648814	-1.842104046	3.615378706
C 	-2.137799253	-2.154490939	2.370318903
C 	-1.603752900	-1.555371980	1.234857091
C 	-0.538251350	-0.651497919	1.277657398
H 	0.845092996	0.330185403	2.610157971
H 	-0.074883216	-0.700447970	4.664575804
H 	-1.983585706	-2.303099630	4.513857255
H 	-2.969099505	-2.847043263	2.269847017
F 	-2.153493919	-1.872698961	0.012956966
Zn	4.675487345	0.506712572	0.934412776
Cl	3.419900286	1.395157912	2.476725112
Cl	6.566320974	0.635512088	-0.063237366
