31

H 	1.449736020	1.933540680	1.367966790
C 	3.501720040	1.555008610	0.592227480
C 	2.028626640	1.306758740	0.692853990
C 	1.293022950	0.322780520	-0.044092170
O 	0.021323830	0.293832360	0.008673800
H 	4.020962330	0.621368240	0.867300090
H 	5.044360140	2.805887950	1.499860160
H 	3.709385780	2.396385640	2.602400000
C 	3.961201500	2.663951390	1.569482830
H 	3.471135270	3.612862740	1.323678880
C 	1.105050250	-1.859447600	-1.373277280
C 	2.002840470	-0.709043060	-0.901662780
H 	0.262182300	-1.484991120	-1.962623630
H 	0.693512470	-2.414767950	-0.523024660
H 	1.683952490	-2.552491470	-1.993469020
H 	2.419966060	-0.166400630	-1.763991750
H 	2.878074480	-1.084638080	-0.352315840
C 	3.157277870	2.740219770	-1.653698750
C 	3.553397240	3.037560740	-2.959857910
C 	4.727304480	2.479709730	-3.480845910
C 	5.508048790	1.624867080	-2.693453730
C 	5.088298060	1.346239960	-1.396459040
C 	3.919388370	1.879258040	-0.843797120
H 	2.238146460	3.165687820	-1.255076350
H 	2.944886520	3.701988540	-3.568600870
H 	5.038931640	2.706771170	-4.497880400
H 	6.425422320	1.178750760	-3.068375900
F 	5.860340570	0.498530090	-0.627242800
Zn	-1.260100420	1.834690150	0.524737000
Cl	-0.266227540	3.652819240	-0.159283800
Cl	-3.002310880	1.055820550	1.498340170
