24

H 	-0.12858200	-2.00848800	0.20809000
C 	-1.20378300	-0.20181000	0.94395000
C 	-0.00195800	-0.92451800	0.32368200
C 	1.13641800	-0.40697900	-0.07434300
O 	4.18483400	0.88188600	-0.59227800
H 	-0.97527400	0.86764700	0.95071900
H 	-2.25189300	-0.12958500	2.84599200
H 	-0.50361400	-0.39408700	2.99789600
C 	-1.39067900	-0.64467200	2.40927100
H 	-1.56046600	-1.72136000	2.49669700
C 	-4.72252400	-0.69762400	-1.55306000
C 	-4.08295300	0.53799200	-1.46035300
C 	-2.95174000	0.68273500	-0.65673700
C 	-2.44091000	-0.39725800	0.07555400
C 	-3.09278700	-1.63506800	-0.02947800
C 	-4.22139400	-1.78404800	-0.83437800
H 	-4.46185800	1.39321000	-2.01518000
H 	-2.46057900	1.65171600	-0.59846400
H 	-2.72667400	-2.49755300	0.52152100
H 	-4.71155800	-2.75290900	-0.89886000
H 	-5.60313100	-0.81445400	-2.18011100
H 	4.29886500	-0.07788000	-0.54696900
Sn	2.29047200	1.34095500	-0.27078500
Cl	2.25687700	2.70117900	1.64699400
