28

H 	1.585688542	-2.217236071	5.229661053
C 	-0.879304400	-0.302338662	2.427731077
C 	1.470089762	-1.871645168	3.193215515
C 	3.990797462	-0.800612066	2.320978256
O 	6.021950198	-1.263921246	3.279856264
H 	-0.604061104	0.246305656	0.445688902
H 	1.343266727	-3.740968676	2.290548412
H 	-1.386594122	1.777559900	5.982352537
C 	-1.118601100	2.159910662	3.967196767
H 	0.573192314	3.336675604	3.769492334
H 	-2.739209418	3.268061633	3.316206847
H 	3.873566638	0.440642029	0.613134340
C 	-7.830632980	-4.693910072	2.536996685
C 	-6.996526180	-3.554210558	0.314673037
C 	-4.761788486	-2.153184447	0.302949384
C 	-3.308691860	-1.856405756	2.496617660
C 	-4.181928784	-3.007849388	4.718945315
C 	-6.411494014	-4.411911496	4.740314772
H 	-8.083504036	-3.754467046	-1.419215254
H 	-4.140599132	-1.275389068	-1.450758053
H 	-3.120123630	-2.817830623	6.467362104
H 	-7.042577861	-5.289726225	6.489196869
H 	-9.569110849	-5.790460146	2.554320409
Sn	7.131792568	-2.759809720	-6.377180972
Cl	9.781527102	-4.844807613	-3.592794967
Cl	8.105460953	1.513392439	-6.477657086
Cl	2.966154452	-3.231488762	-5.068178702
Cl	7.533165786	-4.429351740	-10.410576262
