28

H 	1.613095440	2.220833260	1.245575780
C 	3.379043320	1.232770180	0.255984080
C 	1.937789880	1.630903510	0.389470840
C 	0.872122580	1.233997440	-0.501663610
O 	-0.362603490	1.418629590	-0.209367200
H 	3.409473300	0.127850660	0.252343630
H 	5.227807650	1.360111550	1.413793820
H 	3.749244050	1.356743950	2.407558660
C 	4.196621340	1.722532220	1.476377230
H 	4.218065570	2.817848130	1.508797810
N 	1.155804670	0.626928530	-1.678292250
H 	0.384877140	0.367810680	-2.284911390
H 	2.104156450	0.598916890	-2.037481980
C 	3.876148330	3.010812230	-1.517655360
C 	4.514425550	3.446746790	-2.682490360
C 	5.307629160	2.543119160	-3.388663120
C 	5.475662190	1.224346030	-2.972468940
C 	4.822791430	0.804598690	-1.806116880
C 	4.023168790	1.687794440	-1.062136530
H 	3.261171860	3.710390790	-0.955087380
H 	4.408918450	4.467891310	-3.039722950
F 	5.942880340	2.966630880	-4.526750360
H 	6.106652670	0.549344130	-3.544640360
H 	4.955238010	-0.220946950	-1.463724990
Al	-1.178457180	1.834710270	1.430413080
F 	-2.766092640	2.174793790	1.017505170
F 	-0.269625550	3.147692040	1.999540870
F 	-0.909761320	0.437810640	2.334306410
