29

H 	1.610865570	2.483032060	0.570025430
C 	3.444175270	1.251831470	0.243868350
C 	1.978581190	1.555859320	0.143920230
C 	0.994329560	0.760102420	-0.546480250
O 	-0.254446710	0.998261270	-0.453111640
H 	3.593876550	0.166028790	0.245359420
H 	5.116274380	1.613062150	1.599691350
H 	3.550616100	1.360706820	2.415828640
C 	4.041783830	1.819799390	1.551408240
H 	3.895818850	2.903584670	1.617659190
N 	1.386701790	-0.289935290	-1.314448510
H 	0.666386870	-0.821823470	-1.790283330
H 	2.360609520	-0.490393870	-1.515324930
C 	4.301152740	3.196700920	-1.208265950
C 	4.931475810	3.696789770	-2.349410250
C 	5.409649040	2.819017470	-3.329900700
C 	5.243863430	1.438536160	-3.173094670
C 	4.604344740	0.977032640	-2.028434730
C 	4.134748550	1.813378120	-1.010827650
H 	3.930177080	3.886479030	-0.454163170
H 	5.048540820	4.770624640	-2.474568020
H 	5.904618770	3.203841820	-4.218377860
H 	5.598327360	0.729785490	-3.916881610
F 	4.421114920	-0.398126580	-1.899808680
Ti	-1.497399040	2.086752030	0.886091080
Cl	-2.752212560	3.215308890	2.376462270
Cl	-0.684867380	3.940730680	-0.123473840
Cl	-3.190563830	0.995822780	-0.087564260
Cl	-0.237613630	1.080965990	2.499436500
