29

H 	1.637640568	2.463957054	0.499868462
C 	3.466361069	1.218912364	0.240424849
C 	2.000137928	1.510009923	0.133072919
C 	1.013820217	0.671635628	-0.497781586
O 	-0.234211897	0.910592053	-0.408637585
H 	3.632596566	0.136784051	0.214312548
H 	5.123218095	1.563691483	1.615347747
H 	3.557315103	1.264381893	2.412956330
C 	4.046410619	1.757030511	1.566532318
H 	3.882989191	2.835009787	1.667185434
N 	1.403066050	-0.426575551	-1.196624569
H 	0.678755133	-0.975840979	-1.645398299
H 	2.371844508	-0.600005066	-1.440747714
C 	4.335680525	3.211503862	-1.142782242
C 	4.933249796	3.745952895	-2.285413632
C 	5.346997747	2.902650371	-3.323353302
C 	5.155258413	1.521397830	-3.218717987
C 	4.551411277	1.026578805	-2.070407145
C 	4.141098638	1.825723933	-0.999817449
H 	4.012875503	3.876342826	-0.346200462
H 	5.073359648	4.820660740	-2.367770542
H 	5.813001746	3.314456683	-4.214847786
H 	5.460262694	0.836385061	-4.004952533
F 	4.346076674	-0.345904273	-1.992274879
Ti	-1.466393764	2.138418860	0.809417211
Cl	-2.709502904	3.437071569	2.163798770
Cl	-0.623540095	3.863987885	-0.386086043
Cl	-3.168844379	0.970900718	-0.047399552
Cl	-0.230005080	1.288044668	2.521627373
