30

H 	2.463480810	0.740135020	0.350796420
C 	4.335496100	-0.143276370	-0.145264000
C 	2.993606940	-0.169568600	0.089794230
C 	2.174973840	-1.359290670	0.041136870
O 	0.942345670	-1.300798200	0.294414770
H 	4.839451130	-1.077298010	-0.398402840
O 	7.758921890	4.325507690	0.156210200
H 	8.684150070	4.080801220	-0.030681490
C 	6.959445220	3.215440980	0.062978940
C 	5.583848490	3.398990490	0.299909190
C 	4.722322180	2.317415830	0.227371560
C 	5.198311490	1.016670620	-0.081435880
C 	6.583755160	0.861455870	-0.322588890
C 	7.458498840	1.940530980	-0.251472460
H 	5.219879490	4.395205090	0.537932110
H 	3.664251920	2.477258450	0.414475380
H 	6.973405580	-0.126054130	-0.564559050
H 	8.522968670	1.799802000	-0.436792660
C 	1.737164070	-3.865119020	-0.277853940
C 	2.759639420	-2.721610690	-0.308578590
H 	0.924600740	-3.686276490	-0.989199120
H 	1.288877800	-3.964827980	0.715901530
H 	2.227486070	-4.810275290	-0.536863370
H 	3.222764740	-2.642984110	-1.303578540
H 	3.585503870	-2.922878290	0.389621120
Ti	-0.576862690	0.121979600	0.858614470
Cl	-2.081894680	1.688801780	1.440334830
Cl	0.755992490	0.470681050	2.656314360
Cl	-0.100999580	1.053856170	-1.147229900
Cl	-1.956914760	-1.632170240	0.905949080
