35

H 	1.999362629	0.936234784	0.227957107
C 	0.000000000	0.000000000	0.000000000
C 	1.492438296	-0.000000000	-0.000000000
C 	2.371766619	-1.152795570	0.000000000
O 	3.427436650	-1.154359916	0.724993866
H 	-0.373537918	-0.983030001	-0.310399429
H 	-1.610338271	1.089561872	-1.023103387
H 	-0.165961528	0.840573154	-2.014558484
C 	-0.517031207	1.064104616	-1.000440624
H 	-0.150815204	2.062073572	-0.739123800
N 	2.086383546	-2.277998739	-0.715928142
C 	2.899172827	-3.484206365	-0.507101337
C 	1.219714562	-2.288910478	-1.899028759
H 	3.267207126	-3.501938323	0.518852514
H 	3.758558984	-3.504028188	-1.191947579
H 	2.272388305	-4.361709537	-0.698624778
H 	0.344856322	-2.932252389	-1.740999363
H 	1.788160088	-2.679317571	-2.753220317
H 	0.891515954	-1.278901365	-2.141262524
C 	-0.196933108	1.563525578	2.072635987
C 	-0.572888410	0.189502987	1.480472127
C 	-0.003967429	-0.933568384	2.376066540
C 	-2.110562921	0.046133887	1.437061753
H 	-2.410073697	-0.903768358	0.975165142
H 	-0.589264977	1.642677889	3.093660691
H 	-0.626878190	2.386839424	1.491465460
H 	0.886581730	1.711712025	2.123706219
H 	-0.465515332	-0.897451823	3.369308974
H 	1.077347029	-0.843100267	2.522939245
H 	-0.203578395	-1.924665079	1.948098782
H 	-2.510405420	0.061852889	2.458172008
H 	-2.588205889	0.862679663	0.886038488
Zn	3.796648038	0.022612343	2.355761371
Cl	3.887510215	-1.300482586	4.057997304
Cl	3.869969962	2.120101056	1.799885576
