35

H 	1.538122550	1.925007900	0.992737910
C 	3.464591060	1.065391050	0.298012920
C 	1.987560760	1.053923560	0.517294420
C 	1.018733760	0.145707350	-0.070048360
O 	-0.100549640	0.596706240	-0.502107970
H 	3.799579270	0.082033030	-0.053973450
H 	5.268422430	1.365045940	1.516121370
H 	3.915065910	0.639505430	2.396961940
C 	4.181051620	1.381825670	1.635057540
H 	3.887185530	2.365272530	2.017545510
N 	1.282728600	-1.182382770	-0.229023900
C 	0.358798230	-2.009472970	-1.021147890
C 	2.271286050	-1.912229900	0.575256280
H 	-0.103078670	-1.397174650	-1.796543260
H 	-0.431506920	-2.435188640	-0.386992770
H 	0.929718660	-2.826418810	-1.475689340
H 	3.081640040	-2.302528400	-0.053849920
H 	1.773782030	-2.758132430	1.067443280
H 	2.686464550	-1.264119080	1.347175240
C 	3.461833170	3.518325970	-0.585710560
C 	3.863569350	2.059744170	-0.892021220
C 	3.158574390	1.586737500	-2.183452460
C 	5.391711160	1.980541410	-1.112794620
H 	5.719205350	0.944622100	-1.274838400
H 	3.736804530	4.160572700	-1.431217490
H 	3.975906380	3.903488810	0.302240130
H 	2.384018950	3.628161090	-0.424778770
H 	3.504290990	2.177306970	-3.040075800
H 	2.070891330	1.703884350	-2.135526900
H 	3.379359880	0.531333100	-2.392031500
H 	5.664121520	2.560302700	-2.003476960
H 	5.954749810	2.392098070	-0.268455150
Zn	-0.492876440	2.557170360	-0.962356860
Cl	-0.723494830	2.648487940	-3.107700490
Cl	-0.427074000	3.797884290	0.818382890
