30

H 	1.927211592	0.929034360	-0.049688353
C 	0.000000000	0.000000000	0.000000000
C 	1.375957094	0.000000000	-0.000000000
C 	2.159394893	-1.206987763	-0.000000000
O 	3.411211358	-1.171471988	-0.155530311
H 	-0.508997268	-0.955597092	0.110278917
H 	-1.441777622	-0.188506750	-2.438963270
H 	0.142744650	-1.161689720	-2.632180758
H 	0.188597839	0.695286618	-2.686360134
C 	-0.358912978	-0.214338814	-2.473008123
C 	1.525824022	-2.572356434	0.166937657
H 	0.889133799	-2.800956687	-0.698402470
H 	0.896620234	-2.615601955	1.063337677
H 	2.313836262	-3.324871104	0.233243166
C 	-2.241726195	0.917411261	0.499789164
C 	-3.146428987	1.959804204	0.677668869
C 	-2.727933702	3.283686034	0.490006123
C 	-1.406292618	3.553437167	0.122664584
C 	-0.521236468	2.496072335	-0.044237705
C 	-0.891938100	1.148815784	0.142541537
H 	-2.565602984	-0.111544363	0.643141205
H 	-4.173671994	1.745321465	0.960364079
H 	-3.426549552	4.105686503	0.624253163
H 	-1.051791242	4.567631039	-0.039023589
F 	0.753752648	2.795611520	-0.429579356
Ti	4.924471415	0.261751607	-0.726432903
Cl	6.396242959	1.841355359	-1.349114082
Cl	4.453780216	1.206445579	1.269236665
Cl	6.331703813	-1.467258616	-0.726281877
Cl	3.589819342	0.542773807	-2.541248955
