30

H 	1.577700990	2.214159840	-0.534780460
C 	3.457731450	1.210999810	-0.372225940
C 	2.086346430	1.291681090	-0.290943350
C 	1.250897250	0.191762100	0.116283290
O 	-0.006940450	0.298326260	0.126979160
H 	3.926052920	0.242179090	-0.207413630
H 	5.156136510	1.401682540	1.885724870
H 	3.424240420	1.095170270	2.521763210
H 	3.896259970	2.781042930	1.887024940
C 	4.127563310	1.728124000	1.993095580
C 	1.837157100	-1.140697040	0.538136350
H 	2.596753570	-1.011109850	1.318892020
H 	2.321746010	-1.630261770	-0.317385090
H 	1.035945190	-1.783544420	0.907997030
C 	5.663710140	1.793592940	-1.330213690
C 	6.566978150	2.667574750	-1.929090750
C 	6.193674880	3.997425020	-2.166105560
C 	4.920865880	4.444377860	-1.795584940
C 	4.035955170	3.552817770	-1.200893470
C 	4.360135370	2.200958690	-0.958062990
H 	5.951432000	0.759947390	-1.145556740
H 	7.557319360	2.317632770	-2.210244190
H 	6.890938010	4.688693920	-2.633954630
H 	4.606287650	5.472079320	-1.957037020
F 	2.812158680	4.033484420	-0.819666930
Ti	-1.523582160	1.779497460	-0.334304690
Cl	-2.980585030	3.412716780	-0.845804140
Cl	-0.698849540	1.599308490	-2.434575350
Cl	-3.004273460	0.240751090	0.303901220
Cl	-0.498232500	2.964172340	1.304689010
