17
C4H7Cl4OSn optimized with ADF in AMS.
H        0.75500185132890      -1.59705301525446       0.19667864434822
C       -0.95378796266417      -0.33260775503235       0.30876225150400
C        0.37951252078227      -0.57539660674839       0.21825018965792
C        1.38619788757403       0.47379452317231       0.14585498357390
O        1.14247931573322       1.68000308895054       0.25801731978551
H       -1.33810843580915       0.67895264655935       0.22999438209465
H       -1.37108211372044      -1.05474396022523       3.13525254926090
H       -2.68488747392076       0.15909965928684       2.60123621051161
H       -0.96143060088475       0.76143591482277       2.98880776748950
C       -1.64343422417713      -0.05934719435163       2.80658700581103
H       -1.66983312163938      -1.14704841431492       0.27730470332272
H        2.42567532770936       0.13284175719545      -0.01543293198909
Sn       2.78655512190876       3.73397795829069       0.07437489744593
Cl       4.10788799236884       2.35311071681315       1.43453059781866
Cl       0.90306175740908       4.69416727561730       1.06445263409599
Cl       2.64424538403610       3.12683776579428      -2.18130936605444
Cl       4.19666381396524       5.61608614942430      -0.07737127867700
