23

C 	0.313716207	0.503060621	0.128204290
C 	1.450356405	-0.505678004	0.493660904
H 	1.559665080	-1.186677240	-0.358380590
C 	-1.038136809	-0.148268624	-0.045005883
H 	0.576787675	1.010118243	-0.807318686
H 	0.201654341	1.251914733	0.920627821
H 	0.902651145	-0.709286343	2.611104978
C 	1.092893254	-1.345107472	1.738281679
H 	1.918532031	-2.021552055	1.984609086
H 	0.196251435	-1.950454897	1.560140080
O 	-2.013239570	-0.027860961	0.628511129
Cl	-1.070344015	-1.292740603	-1.525082095
C 	5.203302863	1.643181578	0.937995015
C 	4.177013315	1.822355551	1.873558955
C 	2.969116859	1.132539229	1.733160592
C 	2.762984764	0.251998699	0.656735287
C 	3.798007629	0.083349270	-0.275577110
C 	5.010221510	0.770596379	-0.137927600
H 	4.318235550	2.498603088	2.714758350
H 	2.184818165	1.279757311	2.473489098
H 	3.654919803	-0.595904095	-1.115081116
H 	5.801935918	0.622989198	-0.870059940
H 	6.144444024	2.178025204	1.048843215
