12

C 	  0.575458	 -0.468057	  0.163858
C 	  0.624077	 -0.437748	 -1.188718
C 	 -1.831869	 -0.707457	 -2.079562
H 	  0.615342	 -1.403475	  0.721379
C 	  0.431560	  0.761691	  0.947755
H 	 -2.016652	 -1.646408	 -1.571778
H 	  0.633056	  0.512122	 -1.720154
H 	 -1.565516	 -0.714049	 -3.130561
H 	 -2.172798	  0.214003	 -1.623365
O 	  0.360202	  0.807523	  2.171253
H 	  0.389066	  1.699083	  0.338091
H 	  0.792315	 -1.331981	 -1.779682
