12

C 	0.884080410	-0.227600133	0.897655241
C 	0.937577351	-0.206484621	-0.455291967
C 	-1.513908567	-0.476599359	-1.355382599
H 	0.916135596	-1.161347724	1.459223945
C 	0.756665938	1.006284756	1.680915925
H 	-1.689512745	-1.435110470	-0.880801986
H 	0.954819721	0.738960166	-0.995232066
H 	-1.249666162	-0.444137263	-2.406944511
H 	-1.863666613	0.425033793	-0.867108844
O 	0.700656092	1.054029360	2.906255776
H 	0.714123110	1.943162345	1.069670490
H 	1.105092370	-1.106216181	-1.039258813
