62

C 	-4.628991431	-0.025680064	4.892096409
C 	-2.378053398	-0.600507634	3.848297393
C 	-0.963147751	-2.840117552	4.649444331
O 	1.048243099	-3.552581703	3.739111885
H 	-0.962807123	0.053415500	-4.305199192
H 	-5.327944997	-1.293807127	6.367165508
H 	-1.529226599	0.546803509	2.371620325
C 	-2.942843062	-4.763482655	-3.640959532
H 	-2.850765150	-6.808230908	-3.348332757
H 	-4.889417980	-4.312649254	-4.183319062
H 	-2.595794805	-3.838911405	-1.825312933
H 	4.436724352	-7.473967451	-4.460295953
H 	1.420728725	-8.178607521	-3.208889696
H 	1.952448728	-8.341239698	-6.506698435
H 	10.358018519	0.894751158	3.272786616
H 	7.965139661	-1.222038548	4.267316279
H 	9.907578083	-2.020342709	1.670230485
N 	5.199664737	-0.981831390	-0.112739042
C 	4.680893466	-1.619167971	-2.563516840
N 	2.582388932	-3.124251165	-2.779024717
C 	7.116060579	0.820348537	0.747249757
H 	4.006076481	-1.636171062	1.234731208
C 	1.745878303	-4.461977912	-5.049316518
H 	1.845947868	-3.761657306	-1.133794930
H 	8.169156637	1.316299683	-0.957690297
C 	2.406311829	-7.282900877	-4.793526992
C 	8.938684225	-0.455897676	2.610372627
H 	6.347948050	5.212704799	-1.769708133
H 	2.894730690	-3.672624955	-6.573931378
C 	5.873345575	3.234681759	1.753776986
C 	4.911959727	3.432289343	4.214543363
C 	3.736636981	5.642793555	5.040034637
C 	3.498715969	7.707742849	3.419621489
C 	4.452193848	7.540471053	0.968565178
C 	5.624778944	5.327595271	0.149193198
H 	5.075873498	1.857933116	5.523083317
H 	3.013209514	5.753621029	6.962453498
H 	2.590467769	9.435571308	4.065480995
H 	4.289221085	9.139838246	-0.313027653
C 	-1.094838013	-3.853889888	-5.705907350
C 	-1.799258826	-5.144647644	-8.226755252
H 	-3.673932588	-4.521107371	-8.842841828
H 	-1.864258308	-7.203280142	-8.065896129
H 	-0.457942199	-4.659876488	-9.726553915
C 	-1.397897121	-0.971036520	-6.044609539
H 	-0.141754491	-0.250855318	-7.519792017
H 	-3.343652282	-0.514722421	-6.584160392
C 	-6.816508740	3.643513810	6.796199029
C 	-6.387312993	2.149167997	4.309167349
C 	-8.946185710	1.008393428	3.439871095
C 	-5.370253448	3.941009622	2.257426404
H 	-5.085876016	2.964164874	0.457943944
H 	-8.177489663	5.168651742	6.474490926
H 	-5.056503559	4.489462043	7.475533387
H 	-7.568986326	2.430547333	8.293585087
H 	-10.313972127	2.524425301	3.104100252
H 	-9.742756261	-0.256129834	4.870571082
H 	-8.731726034	-0.061573483	1.683538798
H 	-6.723155739	5.469279462	1.925262080
H 	-3.576668322	4.805232561	2.812591978
H 	-1.852912811	-3.942574876	6.208673132
S 	6.424045361	-0.656089372	-5.041090918
