27

H 	  1.925821	  0.936407	 -0.037407
C 	  0.000000	  0.000000	  0.000000
C 	  1.374733	  0.000000	  0.000000
C 	  2.202937	 -1.187016	  0.000000
O 	  3.452583	 -1.110646	 -0.072543
H 	 -0.519409	 -0.945807	  0.142883
H 	 -0.113948	  0.662338	 -2.664500
H 	 -1.577045	 -0.411868	 -2.253338
H 	  0.087808	 -1.186199	 -2.587831
C 	 -0.505056	 -0.304526	 -2.372353
C 	  1.573668	 -2.570440	  0.087125
H 	  0.920790	 -2.750467	 -0.776735
H 	  0.959049	 -2.663974	  0.990758
H 	  2.364706	 -3.322805	  0.104258
C 	 -2.525941	  3.435478	  0.457644
C 	 -3.036272	  2.145130	  0.637486
C 	 -2.203583	  1.037409	  0.474302
C 	 -0.843222	  1.195494	  0.140135
C 	 -0.343528	  2.502226	 -0.039786
C 	 -1.177247	  3.607783	  0.117151
H 	 -4.081555	  2.002857	  0.902551
H 	 -2.603648	  0.033985	  0.611225
H 	  0.697719	  2.655042	 -0.310537
H 	 -0.776237	  4.608433	 -0.027021
H 	 -3.172988	  4.301202	  0.579097
I 	  4.778043	  1.185892	 -0.478738
I 	  6.205154	  3.548126	 -0.962149
