35

H 	1.985626397	0.782746586	-0.227028765
C 	0.000000000	0.000000000	0.000000000
C 	1.379984503	-0.091083531	0.000000000
C 	2.137143691	-1.327692124	0.000000000
O 	3.217642495	-1.417418111	-0.700020321
H 	-0.558926779	-0.901158882	0.238514061
H 	0.539947023	-0.335418295	-2.651323120
H 	-1.223769258	0.228308585	-2.465929320
H 	-0.770412883	-1.551197887	-2.163193796
C 	-0.458087386	-0.513867171	-2.263007689
N 	1.759261728	-2.430350115	0.691898291
C 	0.845495073	-2.404650145	1.842990895
C 	2.483994782	-3.696903011	0.490143183
H 	0.644677394	-1.377004702	2.144149162
H 	1.323452948	-2.930726365	2.678032806
H 	-0.099767948	-2.911795857	1.611694129
H 	1.780392111	-4.523722867	0.630906950
H 	3.302580576	-3.794914256	1.215583009
H 	2.901074691	-3.726357576	-0.515803444
O 	-2.896950286	0.110343785	-0.168864421
H 	-2.329497199	-0.544234463	-0.612504044
C 	-2.165158919	1.252976381	0.087104845
C 	-2.896116378	2.425109279	0.310586210
C 	-2.228975694	3.624744710	0.549923256
C 	-0.826290378	3.663132593	0.560105025
C 	-0.102047379	2.494001324	0.353778973
C 	-0.746978820	1.257791915	0.129190243
H 	-3.981416075	2.375420223	0.277221617
H 	-2.802148392	4.533319328	0.719471363
H 	0.983058460	2.528361779	0.386131789
H 	-0.304256701	4.599309176	0.739506182
Al	3.869762549	-0.274873538	-2.006568904
F 	5.324211524	-0.964512027	-2.473028337
F 	3.978800140	1.232300034	-1.244994597
F 	2.654745558	-0.287945725	-3.186883371
