35

H 	1.458125180	2.057672900	-0.736108930
C 	3.348669790	1.071967360	-0.504264040
C 	1.965850760	1.123942390	-0.506170770
C 	1.077814790	0.121633830	0.052507250
O 	0.003039330	0.495687300	0.664998250
H 	3.814905340	0.115282770	-0.282210960
H 	2.821109350	2.056250010	1.998354150
H 	4.629015770	2.283660520	1.610124840
H 	3.988176570	0.624133920	2.156567400
C 	3.785604570	1.616811520	1.759434340
N 	1.320786900	-1.211446850	-0.016663790
C 	2.241252800	-1.832782040	-0.981708090
C 	0.458480140	-2.154484380	0.718334950
H 	2.550038400	-1.107298630	-1.734290520
H 	1.717299200	-2.657644160	-1.479695110
H 	3.127138160	-2.241888590	-0.478520430
H 	1.077771600	-2.985091490	1.075016150
H 	-0.325464510	-2.551098060	0.058954930
H 	-0.009939750	-1.646108670	1.560119260
O 	6.255719860	0.955758810	-0.354264460
H 	5.641692660	0.613286580	0.319474730
C 	5.625526930	1.938026890	-1.095344610
C 	6.460226670	2.823720230	-1.787025310
C 	5.906588600	3.857587880	-2.540048660
C 	4.513659710	4.018968530	-2.600145390
C 	3.685468180	3.129598510	-1.923047980
C 	4.212829350	2.059739050	-1.165175060
H 	7.536549320	2.692841390	-1.706065360
H 	6.560996050	4.545890360	-3.070489470
H 	2.608130410	3.252292500	-1.990779470
H 	4.078864070	4.829571850	-3.179549610
Al	-0.470377810	2.182094350	1.291760720
F 	-2.021748660	1.973921780	1.893902370
F 	-0.340095350	3.204061640	-0.053567930
F 	0.722175830	2.515391180	2.449158740
