8

H 	0.072611421	-1.833785974	-0.516101816
C 	-0.861596168	0.017641647	-0.048413617
C 	0.190324160	-0.780118423	-0.271136349
C 	1.596311592	-0.341194507	-0.212192756
H 	-0.734468045	1.068160623	0.197115040
O 	2.577167187	-1.000930748	-0.399618283
F 	1.721004967	1.015104230	0.106517163
H 	-1.875690554	-0.370970137	-0.102006433
