25

H 	1.931228379	0.920114046	-0.001394348
C 	0.000000000	0.000000000	0.000000000
C 	1.354665444	0.000000000	-0.000000000
C 	2.172813054	-1.200932429	-0.000000000
O 	3.425489315	-1.199969919	-0.004663573
H 	-0.516559476	-0.959760678	-0.001683743
C 	-2.595762125	3.394463194	0.006284645
C 	-1.206096732	3.588639573	0.013392301
C 	-0.342648860	2.497355576	0.010337272
C 	-0.855349432	1.178920593	0.000963961
C 	-2.256272618	1.000483033	-0.006725496
C 	-3.118732944	2.096968874	-0.003652169
H 	-0.798900548	4.597020837	0.021831344
H 	0.730899913	2.666078329	0.016200617
H 	-2.661363416	-0.009770829	-0.014395980
H 	-4.195099804	1.941293563	-0.009552715
H 	-3.264680688	4.252152202	0.008895679
O 	1.503694351	-2.370539789	0.005760402
C 	2.321067345	-3.584806662	0.009028905
H 	2.955327285	-3.607103658	0.899116959
H 	2.946937654	-3.617320834	-0.886745054
H 	1.600920978	-4.403371425	0.016816918
Zn	4.921815984	0.273559528	-0.018072357
Cl	6.745276677	-0.855300144	0.005809483
Cl	4.068598297	2.264042805	-0.042452589
