25

H 	2.449295890	0.647329650	0.813418380
C 	4.192187330	-0.113568430	-0.160521440
C 	2.908815780	-0.173960000	0.271047550
C 	2.020476330	-1.307449310	0.070411420
O 	0.808464010	-1.312203100	0.392221960
H 	4.598998480	-0.969011620	-0.700685800
C 	6.913869320	3.148852900	0.301912670
C 	5.630694720	3.235366910	0.864341220
C 	4.730206460	2.182832980	0.727708190
C 	5.097225530	1.013747190	0.019530250
C 	6.392810700	0.941518460	-0.538890020
C 	7.292782530	1.998977010	-0.400008510
H 	5.336193540	4.128226510	1.411936740
H 	3.742185660	2.265074400	1.173395100
H 	6.685519680	0.045236420	-1.083809840
H 	8.286223800	1.928029150	-0.837199230
H 	7.612280560	3.975871980	0.411444410
O 	2.574021360	-2.396414860	-0.499243570
C 	1.678574480	-3.532349400	-0.733686240
H 	0.832549560	-3.222003590	-1.352870960
H 	1.313376780	-3.920860420	0.221205420
H 	2.296232380	-4.270646680	-1.246561650
Zn	-0.459696350	0.250018720	0.999707310
Cl	-2.330767870	-0.187910640	0.045159140
Cl	0.608224700	1.631080660	2.282191700
