34

H 	2.002843495	0.940062790	0.216608563
C 	0.000000000	0.000000000	0.000000000
C 	1.503115772	0.000000000	0.000000000
C 	2.392521198	-1.143541979	0.000000000
O 	3.441707839	-1.152650559	0.756572668
H 	-0.355741806	0.171199254	-1.029617565
H 	-1.610126313	1.232421635	0.816363094
H 	-0.128785403	2.145701764	0.437282695
C 	-0.516354875	1.203917918	0.841714444
H 	-0.185497395	1.108340179	1.880100139
N 	2.176154221	-2.248357490	-0.747506822
C 	3.010530043	-3.442839755	-0.549171402
C 	1.264509401	-2.294646709	-1.893954442
H 	3.853294668	-3.448813679	-1.252992060
H 	2.389660501	-4.327038905	-0.726465048
H 	3.400293807	-3.451772956	0.468083608
H 	0.456116801	-3.009807932	-1.709539603
H 	1.826980704	-2.613132702	-2.780769590
H 	0.840790434	-1.311853872	-2.089796067
C 	-0.204297199	-1.899328645	1.698780505
C 	-0.796527095	-3.076825908	2.160620228
C 	-1.826359769	-3.681418851	1.429429122
C 	-2.265336053	-3.103836761	0.234141173
C 	-1.654427322	-1.931177161	-0.198677938
C 	-0.619359753	-1.301077460	0.495798576
H 	0.596019516	-1.432566672	2.268609037
H 	-0.455777509	-3.520122206	3.092930890
H 	-2.291563543	-4.597128303	1.786487688
H 	-3.064390806	-3.542279748	-0.357616597
F 	-2.090193594	-1.378645712	-1.386426007
B 	3.662657475	-0.143910674	1.995186307
F 	3.945808842	1.107332888	1.452084502
F 	4.706153441	-0.704859775	2.692003959
F 	2.451866017	-0.141953425	2.712499808
