22

H 	-1.778704114	-1.152610643	-0.071404019
C 	0.000000000	0.000000000	0.000000000
C 	-1.330112428	-0.164694023	0.000000000
C 	-2.349032991	0.926713242	0.000000000
H 	0.407957966	1.014604009	0.015838216
O 	-3.499705051	0.722900970	-0.395822370
N 	-1.939072906	2.177237279	0.426118573
H 	-1.115242416	2.280160439	1.004853609
H 	-2.666048765	2.877335466	0.522297812
C 	1.910587437	-0.850300085	-1.337801962
C 	1.062134582	-1.079917402	-0.057512351
C 	0.467861556	-2.501647696	-0.080530288
C 	1.974265549	-0.918908073	1.188810369
H 	1.406712557	-1.083168487	2.112245325
H 	2.729395326	-1.578957429	-1.385181826
H 	2.349056295	0.155183380	-1.346450812
H 	1.295000739	-0.961870819	-2.237538513
H 	1.274819979	-3.242966410	-0.112543239
H 	-0.165755861	-2.655748509	-0.961474123
H 	-0.134954338	-2.697075854	0.814040591
H 	2.795020010	-1.646024293	1.154404782
H 	2.413202731	0.085777449	1.230023452
