26

H 	2.026448205	0.941647371	0.109675256
C 	0.000000000	0.000000000	0.000000000
C 	1.494503074	0.000000000	-0.000000000
C 	2.317018474	-1.166405646	-0.000000000
O 	3.536081587	-1.242416507	0.046621855
H 	-0.362618455	-0.937010817	-0.434730640
H 	-1.682564931	1.186116551	-0.703853253
H 	-0.319026287	1.111795842	-1.846221778
C 	-0.590394982	1.186495125	-0.787382224
H 	-0.218782373	2.146189702	-0.412044221
F 	1.602948361	-2.355515428	-0.080358191
C 	-1.037364624	-0.081790527	4.226788994
C 	-1.134477329	-1.243020384	3.450813862
C 	-0.799364222	-1.210464539	2.095347787
C 	-0.382090777	-0.012010961	1.492768565
C 	-0.269627563	1.146027212	2.283338379
C 	-0.603138527	1.112041901	3.638863112
H 	-1.469493628	-2.174572599	3.901685831
H 	-0.863400468	-2.116199219	1.496543414
H 	0.072900078	2.078166729	1.841170986
H 	-0.519837320	2.016287898	4.237797010
H 	-1.292978183	-0.108285767	5.283687349
B 	4.926507547	0.495574763	0.126449466
F 	4.371759463	1.077942178	1.203343051
F 	4.599766552	0.968677498	-1.085888146
F 	6.023580324	-0.243906317	0.274013105
