26

H 	  2.026448	  0.941647	  0.109675
C 	  0.000000	  0.000000	  0.000000
C 	  1.494503	  0.000000	 -0.000000
C 	  2.317018	 -1.166406	 -0.000000
O 	  3.536082	 -1.242417	  0.046622
H 	 -0.362618	 -0.937011	 -0.434731
H 	 -1.682565	  1.186117	 -0.703853
H 	 -0.319026	  1.111796	 -1.846222
C 	 -0.590395	  1.186495	 -0.787382
H 	 -0.218782	  2.146190	 -0.412044
F 	  1.602948	 -2.355515	 -0.080358
C 	 -1.037365	 -0.081791	  4.226789
C 	 -1.134477	 -1.243020	  3.450814
C 	 -0.799364	 -1.210465	  2.095348
C 	 -0.382091	 -0.012011	  1.492769
C 	 -0.269628	  1.146027	  2.283338
C 	 -0.603139	  1.112042	  3.638863
H 	 -1.469494	 -2.174573	  3.901686
H 	 -0.863400	 -2.116199	  1.496543
H 	  0.072900	  2.078167	  1.841171
H 	 -0.519837	  2.016288	  4.237797
H 	 -1.292978	 -0.108286	  5.283687
B 	  4.926508	  0.495575	  0.126449
F 	  4.371759	  1.077942	  1.203343
F 	  4.599767	  0.968677	 -1.085888
F 	  6.023580	 -0.243906	  0.274013
