26

H 	0.683191593	-1.653024704	0.226586101
C 	-0.705659156	-0.068827894	0.979337605
C 	0.469165306	-0.587309867	0.214809408
C 	1.287033620	0.187319480	-0.661589196
O 	2.228506081	-0.177343524	-1.350586017
H 	-0.592094489	1.009325575	1.131522713
H 	-1.779907983	-0.399738754	2.842075934
H 	-0.011237011	-0.540275997	2.989789592
C 	-0.871260847	-0.759610555	2.347439604
H 	-0.945426842	-1.847722388	2.244968768
F 	0.948578185	1.534301800	-0.699301076
C 	-4.046899414	-0.615006813	-1.756784173
C 	-3.486809330	0.653947822	-1.566846553
C 	-2.414331213	0.822500698	-0.688194419
C 	-1.900520385	-0.271600385	0.027662464
C 	-2.456837476	-1.546365248	-0.182544233
C 	-3.527881450	-1.714188515	-1.062619244
H 	-3.884067915	1.512151020	-2.104418750
H 	-1.972134405	1.806702359	-0.550965765
H 	-2.058986760	-2.409727052	0.344753093
H 	-3.954793276	-2.703750881	-1.210383735
H 	-4.878511855	-0.747395572	-2.445237792
B 	3.018355953	-2.257649054	-1.444055435
F 	1.850175581	-2.844207383	-1.756946762
F 	3.419921477	-2.293030989	-0.164273575
F 	3.900759572	-2.000469331	-2.407070708
