18

H 	0.115481600	-1.537729954	0.982862420
C 	-0.871350017	-0.252276709	-0.413102323
C 	0.197077178	-0.714527787	0.274596808
C 	1.562609049	-0.212895454	0.178965085
H 	-0.699700618	0.571790291	-1.104242196
O 	2.518752134	-0.614749134	0.775978219
Br	1.839216781	1.358000278	-1.134880702
C 	-4.927853289	-1.596618651	-0.282496094
C 	-3.971172855	-2.221844663	0.531383373
C 	-2.644459901	-1.802053928	0.505299146
C 	-2.241862544	-0.741134559	-0.337483521
C 	-3.218022289	-0.122111951	-1.149086783
C 	-4.547260364	-0.544859509	-1.122296113
H 	-4.266183341	-3.039518955	1.185106698
H 	-1.916456160	-2.298084688	1.141688166
H 	-2.919891166	0.695423595	-1.802464151
H 	-5.284530378	-0.056657716	-1.755403283
H 	-5.963085009	-1.929328475	-0.258707020
