28

H 	2.012659248	0.953816149	0.081491180
C 	0.000000000	0.000000000	0.000000000
C 	1.495782805	0.000000000	-0.000000000
C 	2.318428227	-1.168073825	0.000000000
O 	3.578089425	-1.080219498	0.164453286
H 	-0.344564855	-0.633003579	-0.835346558
H 	-1.664536244	1.393851912	-0.218272965
H 	-0.209144627	1.860230661	-1.130697927
C 	-0.570567362	1.421493075	-0.193109702
H 	-0.263486696	2.070500931	0.634524271
C 	1.729056365	-2.545853223	-0.192550733
H 	0.995450673	-2.559851580	-1.006883958
H 	1.201506892	-2.847395925	0.721465447
H 	2.530606698	-3.258789712	-0.396697742
C 	0.017771381	-0.312651851	2.532823687
C 	-0.472261009	-0.888919996	3.707141433
C 	-1.508598641	-1.813569533	3.611702071
C 	-2.070315442	-2.180736917	2.390447829
C 	-1.564954387	-1.597824179	1.225473626
C 	-0.526384407	-0.656919209	1.282924952
H 	0.838681146	0.398293187	2.594316831
H 	-0.059499581	-0.632084854	4.678760547
F 	-1.998120247	-2.381000578	4.756175231
H 	-2.880470294	-2.904339223	2.361740544
H 	-1.988093971	-1.878928946	0.262837142
Zn	4.675072047	0.507422923	0.920395490
Cl	6.567016906	0.613688280	-0.078611237
Cl	3.437365622	1.440035197	2.453017004
