28

H 	1.702743820	2.327299730	0.169655930
C 	3.525969710	1.098584070	-0.108744460
C 	2.063287480	1.299672280	0.133127740
C 	1.103670500	0.267513830	0.365673810
O 	-0.128692190	0.542087300	0.525566420
H 	3.683932490	0.078216360	-0.488224450
H 	5.363036330	1.017635190	1.080521490
H 	3.921192580	0.449056340	1.947579080
C 	4.294392060	1.198714780	1.242517030
H 	4.165868310	2.186948800	1.696852740
C 	1.516875390	-1.187799480	0.432025640
H 	2.424026180	-1.332177340	1.029535680
H 	1.728044490	-1.555218900	-0.582562810
H 	0.697203630	-1.775581480	0.851809500
C 	5.050376980	2.992231030	-0.981578170
C 	5.457634140	3.863436960	-1.999140540
C 	4.801750290	3.811761770	-3.226141420
C 	3.754405950	2.924440000	-3.467355430
C 	3.365620910	2.060619650	-2.441962440
C 	4.008368640	2.075258270	-1.188171500
H 	5.561893430	3.040999490	-0.025028590
H 	6.267075790	4.572456390	-1.846780470
F 	5.196955370	4.664527210	-4.224928980
H 	3.254744810	2.918839950	-4.432120190
H 	2.536211840	1.378666270	-2.616266740
Zn	-1.056107450	2.293888670	-0.134044290
Cl	-2.128076940	3.235602790	1.463715920
Cl	-0.418861700	2.387503040	-2.206991210
