32

H 	1.654383680	1.886316610	0.764971600
C 	3.606479330	1.061154770	0.124155080
C 	2.132833320	1.008923210	0.331741940
C 	1.245311300	-0.064376080	0.003727410
O 	-0.010398340	0.100040120	0.039828520
H 	3.959769360	0.094406230	-0.256647410
H 	5.392571690	1.342818730	1.372716060
H 	4.055375950	0.523601600	2.196742510
C 	4.304268770	1.321256580	1.487566240
H 	3.980940510	2.271355080	1.926272500
C 	0.742977230	-2.532650910	-0.514180510
C 	1.802496380	-1.430059610	-0.400611210
H 	-0.021148980	-2.269650420	-1.252492680
H 	0.234841140	-2.689860760	0.443761650
H 	1.212743320	-3.475904840	-0.816131180
H 	2.318661740	-1.293980970	-1.364292440
H 	2.588178380	-1.713699150	0.314663440
C 	3.574782540	3.557998640	-0.601516090
C 	3.988850840	2.124288070	-1.001395930
C 	3.261215350	1.732154000	-2.309344340
C 	5.512868600	2.072478500	-1.247362720
H 	5.844388490	1.051623160	-1.479416410
H 	3.865453970	4.259213140	-1.393388530
H 	4.068201810	3.881970630	0.321851520
H 	2.490964740	3.646316150	-0.467189090
H 	3.555766000	2.405217820	-3.123489400
H 	2.172543480	1.798011650	-2.197647450
H 	3.516877240	0.708336870	-2.612965740
H 	5.771648050	2.710935910	-2.101487550
H 	6.084303750	2.431436640	-0.384510570
I 	-0.936400130	2.559653390	-0.454242300
I 	-1.905048320	5.073351660	-1.202115540
