32

H 	1.665460977	1.864645579	0.823907871
C 	3.616379511	1.063285480	0.158384931
C 	2.146973797	0.997958424	0.373274182
C 	1.261174842	-0.064790362	0.012291441
O 	0.006483787	0.105213613	0.034234537
H 	3.979906329	0.093468434	-0.204020265
H 	5.405454173	1.396234124	1.389065872
H 	4.083241662	0.579834948	2.237324520
C 	4.318412119	1.363539713	1.508772177
H 	3.985542179	2.318790544	1.927892461
C 	0.744003450	-2.508699266	-0.577697879
C 	1.814021091	-1.425322392	-0.408063978
H 	0.006386099	-2.217544412	-1.331820905
H 	0.204181699	-2.678539437	0.360155976
H 	1.208024170	-3.451894655	-0.886567705
H 	2.360574677	-1.274645746	-1.351891324
H 	2.574701353	-1.734712923	0.323064291
C 	3.544341814	3.541211906	-0.626787070
C 	3.974559690	2.105682155	-0.996395556
C 	3.243195562	1.675261277	-2.289007564
C 	5.496090062	2.068126051	-1.252891941
H 	5.838931972	1.047199413	-1.465081733
H 	3.822124289	4.227504286	-1.435840846
H 	4.037607409	3.893442760	0.285798165
H 	2.460627839	3.619378844	-0.489266899
H 	3.517728761	2.339041207	-3.117276533
H 	2.154965577	1.723423807	-2.171019006
H 	3.515681486	0.651832278	-2.577223148
H 	5.739921796	2.690971870	-2.122264616
H 	6.068853249	2.453438778	-0.402944639
I 	-0.898471296	2.575126015	-0.431990283
I 	-1.830378934	5.114214109	-1.148543156
