24
TSRC, radical, TSRC=2_10, R2=Ph, R1=H, Rcat=I2
H	 0.19369716	-1.85361092	-0.24516176
C	-0.92057816	-0.12292898	 0.28183759
C	 0.21368396	-0.77846351	-0.06958517
C	 1.52168394	-0.13059856	-0.22805405
O	 2.57084417	-0.68022178	-0.54313771
H	-0.93117356	 0.95749943	 0.37346659
H	-1.16677948	-1.14795174	 3.01281369
H	-2.10496465	 0.45730942	 2.86041604
H	-0.24714630	 0.47546451	 3.02589233
C	-1.16197426	-0.07675120	 2.85297480
C	-4.74611209	-2.17290540	 0.36190353
C	-3.61499942	-2.77905027	 0.92266250
C	-2.38081349	-2.11769108	 0.89683179
C	-2.27774025	-0.85018701	 0.31024211
C	-3.40885292	-0.24404214	-0.25051686
C	-4.64303884	-0.90540134	-0.22468614
H	-3.69387383	-3.74897827	 1.37153661
H	-1.51525584	-2.58152934	 1.32593954
H	-3.32997851	 0.72588585	-0.69939096
H	-5.50859650	-0.44156308	-0.65379390
H	-5.69054416	-2.67899514	 0.38166988
H	 1.51741535	 0.92352060	-0.04443873
I	 3.93691787	 0.31396217	-0.73139533
I	 6.16201085	 1.93331237	-1.03803377
