24

C 	0.617628910	-0.338045380	0.950113350
C 	1.106089520	-0.257206950	-0.321829240
C 	-1.095692620	-0.024820800	-1.526836930
H 	0.499335130	-1.300704830	1.446129520
C 	0.155581130	0.758663290	1.780046830
H 	-1.402030200	-1.062469140	-1.457604280
H 	1.266414960	0.736867020	-0.737978330
H 	-0.722248840	0.349014180	-2.473117800
H 	-1.493090840	0.688133900	-0.815305080
O 	-0.328119330	0.692744410	2.876359590
I 	0.411517160	2.870959720	0.869369210
C 	3.334060050	-1.225361400	-0.638118580
C 	1.830346160	-1.392436810	-1.030873610
C 	1.720265140	-1.259838800	-2.569713470
C 	1.341744610	-2.790472640	-0.594160000
H 	0.269680490	-2.913721900	-0.787760480
H 	3.929351670	-2.001157820	-1.135751380
H 	3.467960310	-1.318622050	0.445056960
H 	3.717194060	-0.246072500	-0.948971940
H 	2.410932750	-1.961867640	-3.052117750
H 	1.980991500	-0.246661480	-2.899585890
H 	0.709095620	-1.486894390	-2.920510080
H 	1.879648440	-3.562769410	-1.156577750
H 	1.522755220	-2.972771700	0.470972510
