34

H 	1.524353777	2.016937453	0.762984760
C 	3.527680076	1.130313936	0.418219620
C 	2.028644065	1.100531690	0.468554633
C 	1.170806413	0.128411257	-0.158433557
O 	0.042720138	0.456599942	-0.691969629
H 	3.932746810	0.137636750	0.202876079
H 	5.237470340	1.740163248	1.623060274
H 	3.938161915	0.957281654	2.557568349
C 	4.151249147	1.646489162	1.731489733
H 	3.747797840	2.626908783	2.005046055
N 	1.517109863	-1.187608129	-0.251208658
C 	0.703398748	-2.083256410	-1.085868467
C 	2.416339165	-1.851453523	0.699774749
H 	0.319417222	-1.534673675	-1.945946940
H 	-0.147887838	-2.484905833	-0.518687207
H 	1.336348040	-2.913001869	-1.416904613
H 	3.302337696	-2.251628638	0.191195796
H 	1.879880243	-2.685879838	1.169955888
H 	2.722587715	-1.160171750	1.484004063
C 	4.389888375	3.537428677	-3.100229867
C 	3.976510993	4.159089174	-1.916766677
C 	3.705017847	3.396485541	-0.780019982
C 	3.857770954	2.001583638	-0.807215753
C 	4.258139037	1.384039361	-2.002119247
C 	4.530072601	2.146045604	-3.140742429
H 	3.849746755	5.238674277	-1.883910060
H 	3.360255783	3.891730437	0.123953873
H 	4.359246543	0.300336398	-2.038412092
H 	4.846636742	1.654963670	-4.058477335
H 	4.590908111	4.132458999	-3.988106685
B 	-0.431840367	1.977939379	-1.005309743
F 	0.586192402	2.546447594	-1.766234366
F 	-0.584823107	2.605494376	0.234761143
F 	-1.614681265	1.804233084	-1.686889338
