26

H 	1.999609453	0.958446521	0.088771553
C 	0.000000000	0.000000000	0.000000000
C 	1.490829993	-0.000000000	-0.000000000
C 	2.368773367	-1.123401267	-0.000000000
O 	3.594873988	-1.098454504	0.045498420
H 	-0.365333301	-0.985028262	-0.302348216
H 	-1.676597540	1.085544945	-0.860502103
H 	-0.318480194	0.839861865	-1.985964036
C 	-0.584814692	1.068536911	-0.948281921
H 	-0.206001046	2.069354794	-0.715785188
Cl	1.566330921	-2.766133654	-0.103325262
C 	-1.056890190	0.528467850	4.188715975
C 	-1.153675038	-0.731705086	3.586503990
C 	-0.808065640	-0.895374029	2.243101003
C 	-0.382840755	0.203627154	1.477930422
C 	-0.270692342	1.462405185	2.095254175
C 	-0.613210974	1.624379368	3.439228595
H 	-1.496334776	-1.587619900	4.163717420
H 	-0.871780481	-1.877015209	1.779772237
H 	0.077496991	2.320997013	1.526650845
H 	-0.529837655	2.604817924	3.902880556
H 	-1.320151137	0.654736665	5.236471780
B 	4.842449281	0.713295781	0.123448398
F 	4.307278067	1.210553653	1.251677123
F 	4.423010650	1.217453121	-1.049133440
F 	5.997957447	0.053482841	0.180047226
