20

H 	-0.107836710	0.127469830	-0.022004820
C 	-0.083730590	-2.022827970	0.005488030
C 	0.465684610	-0.786014830	0.121205060
C 	1.869124830	-0.626506730	0.440743850
O 	2.468486660	0.454703580	0.547846410
H 	0.576084690	-2.881644430	0.158055290
C 	-4.129584720	-3.080210260	-0.881342810
C 	-3.774857040	-1.725451450	-0.783605130
C 	-2.461736280	-1.362356160	-0.498195590
C 	-1.469043740	-2.350789560	-0.301917630
C 	-1.842743630	-3.710111670	-0.404200820
C 	-3.159380900	-4.071209730	-0.691615100
H 	-4.528744230	-0.954637480	-0.929816410
H 	-2.201785120	-0.309498690	-0.424074160
H 	-1.087788750	-4.480603140	-0.255248060
H 	-3.430591950	-5.122277380	-0.766941850
H 	-5.157621200	-3.358602350	-1.103905840
H 	2.441684470	-1.566648980	0.601245410
I 	1.243724970	2.828656420	-0.028069900
I 	0.018489570	5.253885590	-0.663576740
