20

H 	-0.107836713	0.127469831	-0.022004815
C 	-0.083730591	-2.022827971	0.005488030
C 	0.465684609	-0.786014833	0.121205062
C 	1.869124830	-0.626506729	0.440743848
O 	2.468486665	0.454703581	0.547846406
H 	0.576084694	-2.881644426	0.158055293
C 	-4.129584719	-3.080210264	-0.881342807
C 	-3.774857038	-1.725451447	-0.783605134
C 	-2.461736277	-1.362356163	-0.498195589
C 	-1.469043737	-2.350789561	-0.301917633
C 	-1.842743627	-3.710111673	-0.404200817
C 	-3.159380901	-4.071209733	-0.691615102
H 	-4.528744235	-0.954637484	-0.929816412
H 	-2.201785122	-0.309498689	-0.424074159
H 	-1.087788747	-4.480603143	-0.255248063
H 	-3.430591950	-5.122277377	-0.766941849
H 	-5.157621205	-3.358602347	-1.103905840
H 	2.441684474	-1.566648976	0.601245409
I 	1.243724965	2.828656425	-0.028069901
I 	0.018489575	5.253885589	-0.663576737
