8

         C      0.307393       0.442576       0.000000 
         C      0.977095      -0.706757       0.000000 
         H      0.467648      -1.662724       0.000000 
         C     -1.165704       0.494207       0.000000 
         H      0.816712       1.400591       0.000000 
         O     -1.795137       1.518531       0.000000 
         H      2.058065      -0.747518       0.000000 
         H     -1.657436      -0.502710       0.000000 
