32

H 	2.067205043	-0.559269034	-0.044047705
C 	0.000000000	0.000000000	0.000000000
C 	1.036255314	-0.902737015	0.000000000
C 	0.866453804	-2.325592464	0.000000000
O 	1.866137171	-3.095533972	-0.183034626
H 	-1.018883061	-0.366401581	0.106090359
H 	0.456663496	0.503534360	-2.714819263
H 	-1.384471338	0.627340004	-2.420623236
H 	-0.575819832	-1.043670070	-2.657363198
C 	-0.487315086	0.023257505	-2.489244756
C 	-0.449626180	-4.509493108	0.267275834
C 	-0.487175571	-2.977957837	0.202955338
H 	0.174770413	-4.852646512	1.098258440
H 	-0.037149395	-4.933710123	-0.652860482
H 	-1.462774471	-4.900475041	0.409116585
H 	-0.939845208	-2.558189700	1.112135957
H 	-1.133457923	-2.645243511	-0.625076719
C 	-1.011388748	2.237484900	0.299643724
C 	-0.921876459	3.624420787	0.417863433
C 	0.320537464	4.261236638	0.333299646
C 	1.454678670	3.472109677	0.133880153
C 	1.400319477	2.091807015	0.016109308
C 	0.144595863	1.452120651	0.100948260
H 	-1.981300128	1.749008175	0.362151257
H 	-1.819816304	4.216940861	0.573868123
H 	0.421191607	5.339710676	0.416939446
F 	2.669252158	4.089575889	0.048808122
H 	2.320800334	1.537407782	-0.140495912
Al	3.565349536	-2.700763021	-0.888247626
F 	3.159537651	-2.238398118	-2.458467563
F 	4.427240080	-4.124430507	-0.716927984
F 	4.117841041	-1.391826385	0.030605187
