25

H 	1.914274958	0.925108227	0.054055596
C 	0.000000000	0.000000000	0.000000000
C 	1.351013941	0.000000000	-0.000000000
C 	2.186294494	-1.203324221	-0.000000000
O 	3.371183826	-1.215566446	0.443763238
H 	-0.528424377	-0.955551129	0.007101039
C 	-2.623988498	3.375339871	0.111455071
C 	-1.236083828	3.579148562	0.112015354
C 	-0.365216931	2.493932204	0.077255626
C 	-0.866635470	1.173225770	0.039880871
C 	-2.265350580	0.984740300	0.044408305
C 	-3.136407359	2.074322942	0.078637058
H 	-0.835625405	4.589773789	0.142972453
H 	0.706743054	2.671146006	0.084084407
H 	-2.664943431	-0.027750121	0.021628257
H 	-4.211426266	1.909743280	0.081700010
H 	-3.299145844	4.227575897	0.140231557
N 	1.686452252	-2.362670828	-0.495943183
H 	2.283140966	-3.182238724	-0.488945245
H 	0.833822119	-2.381617895	-1.038354195
Sn	4.559698780	0.297521923	1.773845544
Cl	4.455629742	1.718539053	-0.144718523
Cl	6.085038830	-1.508812726	1.766221951
Cl	5.829904064	1.792329458	3.152420445
Cl	2.626311801	0.205584536	3.165740364
