27

H 	2.024478616	0.951609613	0.009917977
C 	0.000000000	0.000000000	0.000000000
C 	1.494170649	-0.000000000	-0.000000000
C 	2.300104374	-1.181365367	-0.000000000
O 	3.540102195	-1.175325740	-0.009063952
H 	-0.335158469	-1.043247517	-0.041033443
H 	-1.670037148	0.700941200	-1.211811110
H 	-0.248244440	0.212938257	-2.156922802
C 	-0.576021940	0.716970778	-1.242500510
H 	-0.251700969	1.759341526	-1.300854825
H 	1.748916901	-2.149564976	0.000102163
C 	-1.461143530	1.580737928	3.782424691
C 	-1.586191075	0.224725355	3.481696320
C 	-1.110613148	-0.270263893	2.267096076
C 	-0.511969336	0.577776790	1.325756712
C 	-0.385540322	1.937990055	1.643887344
C 	-0.857682269	2.434715027	2.858024122
H 	-2.054235337	-0.452371113	4.192666983
H 	-1.212947606	-1.330805975	2.046912303
H 	0.081779227	2.624778230	0.943343037
H 	-0.752022334	3.493742886	3.082381528
H 	-1.828333924	1.969246937	4.729239702
Sn	7.667855924	-0.113761742	-0.556226695
Cl	6.363425476	1.368304074	-1.774271278
Cl	7.381664778	-2.276279787	-1.334029928
Cl	7.174399016	0.026925620	1.702573036
Cl	9.898395451	0.477473678	-0.850883536
