27

H 	-1.124034890	-3.089792290	-0.510455580
C 	-0.852816180	-0.942632970	0.084747290
C 	-0.575209520	-2.172957700	-0.722297400
C 	0.457694350	-2.262006040	-1.712480530
O 	0.804520420	-3.313543150	-2.274718300
H 	-0.152398820	-0.165425370	-0.243678620
H 	-0.734455470	-0.288747700	2.163620550
H 	0.457002580	-1.537507530	1.742838860
C 	-0.574489100	-1.207271020	1.590325600
H 	-1.243782740	-1.976000750	1.987210370
H 	0.968543610	-1.303604950	-1.955405220
C 	-4.827994520	0.782832870	-0.316678160
C 	-3.688576050	1.570140080	-0.472761820
C 	-2.421371210	0.995243540	-0.374731810
C 	-2.264899990	-0.370926560	-0.107368780
C 	-3.418711760	-1.152266360	0.040323780
C 	-4.686636970	-0.581419520	-0.063850200
H 	-3.782771350	2.636107430	-0.669588100
H 	-1.541919320	1.624795630	-0.495963530
H 	-3.339367570	-2.216493430	0.246142160
H 	-5.568590190	-1.206720950	0.056765180
H 	-5.817688370	1.227626310	-0.391474090
Sn	5.139616440	-1.377986620	-1.254757910
Cl	3.829120830	-1.094232910	0.643554640
Cl	4.215990130	-0.173245620	-3.009131070
Cl	5.295824130	-3.621289170	-1.792982100
Cl	7.257310130	-0.538782290	-0.802039250
