27

H 	-2.124118097	-5.838861210	-0.964621245
C 	-1.611589015	-1.781318149	0.160149168
C 	-1.086988457	-4.106294933	-1.364944267
C 	0.864916970	-4.274571908	-3.236119195
O 	1.520323255	-6.261689056	-4.298594598
H 	-0.287992032	-0.312608643	-0.460485854
H 	-1.387919689	-0.545654072	4.088650277
H 	0.863609714	-2.905468146	3.293488125
C 	-1.085627061	-2.281411586	3.005279833
H 	-2.350408737	-3.734100240	3.755283351
H 	1.830282163	-2.463456330	-3.695180328
C 	-9.123587374	1.479339726	-0.598434992
C 	-6.970398524	2.967134728	-0.893390362
C 	-4.575728433	1.880737718	-0.708140491
C 	-4.280040681	-0.700949611	-0.202897589
C 	-6.460428925	-2.177467843	0.076200901
C 	-8.856460319	-1.098723656	-0.120659391
H 	-7.148401844	4.981521078	-1.265338125
H 	-2.913805221	3.070418749	-0.937235240
H 	-6.310490137	-4.188565540	0.465141270
H 	-10.523110359	-2.280372104	0.107270644
H 	-10.993837698	2.319877509	-0.739778815
Sn	9.712467457	-2.604017315	-2.371148803
Cl	7.235989667	-2.067800516	1.216142016
Cl	7.967066690	-0.327386774	-5.686433595
Cl	10.007657210	-6.843244749	-3.388245115
Cl	13.714328547	-1.018150969	-1.515634524
