26

H 	-1.547680718	-1.464341797	0.000994048
C 	0.000000000	0.000000000	0.000000000
C 	-1.291065103	-0.407320219	0.000000000
C 	-2.452147541	0.485984254	0.000000000
O 	-3.606837620	0.018812030	0.001905794
H 	0.218346210	1.065268336	-0.003003003
C 	1.097633357	-2.283436346	0.016972600
C 	2.246379420	-3.066944524	0.019071130
C 	3.512989400	-2.462835196	0.005607232
C 	3.625550229	-1.070510414	-0.008817811
C 	2.462762612	-0.310027360	-0.009375647
C 	1.169355526	-0.869796427	0.002605117
H 	0.123782038	-2.764386235	0.027562928
H 	2.160587702	-4.150268952	0.030358985
H 	4.411737772	-3.074559546	0.006406443
H 	4.590270489	-0.571176984	-0.019476355
F 	2.590016766	1.054776854	-0.024458112
C 	-3.575325641	2.793309434	-0.008931617
C 	-2.262581990	2.002377684	-0.001249633
H 	-4.182326603	2.556912117	0.870725265
H 	-4.173189762	2.555284439	-0.894463874
H 	-3.365367033	3.868478875	-0.008854752
H 	-1.656357190	2.264236100	0.878253008
H 	-1.646150621	2.263209594	-0.873719037
I 	-4.244289476	-2.620579382	0.018873102
I 	-4.954216816	-5.323085490	0.037328381
