26

H 	2.455159068	0.517622917	0.648458905
C 	4.297264569	-0.270957680	-0.075696783
C 	2.994352106	-0.353341967	0.282619844
C 	2.183896539	-1.572262129	0.223452945
O 	0.988585889	-1.552011304	0.573288696
H 	4.804210870	-1.163287226	-0.435188290
C 	4.646105298	2.193007833	0.400068595
C 	5.476149329	3.308286857	0.426271530
C 	6.816694305	3.200199695	0.025414289
C 	7.323364631	1.970953204	-0.403170088
C 	6.473398364	0.872026928	-0.421286772
C 	5.121355603	0.930085514	-0.027590936
H 	3.610618845	2.291136782	0.713038015
H 	5.083550476	4.265366573	0.759354118
H 	7.466692233	4.071418200	0.046318013
H 	8.355753761	1.852899634	-0.719980278
F 	6.985852385	-0.327204658	-0.843597228
C 	1.816256276	-4.065077267	-0.262419085
C 	2.793317349	-2.884299659	-0.269040192
H 	0.951923720	-3.864228780	-0.903292870
H 	1.439216673	-4.258432846	0.746897288
H 	2.317500425	-4.968649979	-0.626263293
H 	3.186511114	-2.711037290	-1.281454163
H 	3.671369922	-3.102426033	0.355994481
I 	-0.358667664	0.627231932	1.472636552
I 	-1.791010096	2.838768130	2.402894308
