68

C 	0.000000000	0.000000000	0.000000000
C 	0.201308609	-1.479634694	0.000000000
C 	1.456106685	-2.193240144	-0.000000000
O 	1.509163585	-3.452076480	-0.078998800
H 	1.915134944	-6.707742964	4.568142828
H 	0.963355351	0.505579824	-0.163421809
H 	-0.680373970	-2.115160503	-0.042321597
H 	-2.227644300	-5.978055423	-3.056205268
H 	-0.675708302	-5.156246989	-2.774510120
H 	2.620198849	-6.052471954	3.075904132
H 	-0.941704923	-6.790278385	-2.136741669
C 	-0.917535927	0.373184645	-1.194220222
H 	-1.898865652	-0.099724166	-1.102293307
H 	1.521071478	-7.440938171	3.001904159
H 	1.878493685	-3.182040940	2.714777292
H 	-1.050955394	1.456964647	-1.266454352
H 	-0.470531370	0.024339349	-2.131365645
N 	-0.879357079	-5.120492207	-0.041982148
C 	-0.873533542	-5.615558323	1.228586781
N 	0.270263615	-5.330255453	1.915504643
C 	-1.971499454	-5.264760024	-1.009808824
H 	-0.092832037	-4.515584798	-0.302339565
C 	0.496638263	-5.569518258	3.343906569
H 	0.964669512	-4.771692748	1.418457426
H 	-2.649489346	-6.004190505	-0.565232496
C 	1.716092532	-6.492593058	3.513341245
C 	-1.422201456	-5.825894593	-2.329026238
H 	-3.296244927	-3.991614728	0.952342421
H 	-0.393840228	-6.103129659	3.690521593
C 	-2.747643202	-3.949348708	-1.131840015
C 	-2.868907814	-3.236712588	-2.332771439
C 	-3.614600382	-2.051297803	-2.390928724
C 	-4.250391969	-1.562957991	-1.247032551
C 	-4.128758367	-2.264079085	-0.039839754
C 	-3.382068342	-3.441064281	0.017960917
H 	-2.389148020	-3.603168949	-3.235968541
H 	-3.697695470	-1.513153888	-3.333098845
H 	-4.836722648	-0.647553747	-1.293736039
H 	-4.621277313	-1.893994642	0.856915511
C 	0.564561954	-4.219140976	4.144497343
C 	0.569025113	-4.529915467	5.658644848
H 	0.526957890	-3.597707386	6.235909480
H 	1.472807699	-5.067623275	5.965016543
H 	-0.301331774	-5.137388195	5.936375627
C 	-0.694856246	-3.383155061	3.818883058
H 	-1.607915690	-3.953850468	4.021289729
H 	-0.712682448	-2.469792727	4.425673010
H 	-0.715994171	-3.090052268	2.764769720
C 	1.827220862	-3.402480784	3.787252860
H 	2.744400640	-3.931590614	4.069327661
H 	1.819624105	-2.444162040	4.321276084
S 	-2.163166534	-6.510729360	1.890600233
N 	2.631322227	-1.475521424	0.066746021
H 	3.487971200	-2.005356649	0.171953999
H 	2.640762022	-0.496217389	0.316034942
C 	-0.649997973	2.082227451	1.338430912
C 	-0.523513135	0.544589990	1.399957058
C 	0.512234537	0.179804405	2.486877389
C 	-1.888959092	-0.071484233	1.768664840
H 	-1.834408601	-1.160902304	1.852129094
H 	-0.883606085	2.476054368	2.335425156
H 	-1.448745281	2.403757272	0.662508586
H 	0.288247340	2.546435457	1.006678894
H 	0.186440263	0.554560175	3.464522022
H 	1.490643424	0.630574719	2.271220606
H 	0.644341308	-0.902487665	2.570472254
H 	-2.224164628	0.321091509	2.736462467
H 	-2.655236215	0.170207578	1.025932624
