21

H 	-1.580784931	0.779771678	-0.456576748
C 	-0.618599906	-1.108075279	-0.055509702
C 	-0.693109555	0.249833408	-0.117156795
C 	0.438869123	1.040083419	0.279823245
O 	0.441527898	2.292721040	0.247958970
H 	0.321529766	-1.534271292	0.301866282
C 	-3.558909156	-4.034062353	-1.057927397
C 	-3.868010911	-2.672429532	-1.197957264
C 	-2.924222608	-1.702363058	-0.876201968
C 	-1.643132635	-2.075215518	-0.406247109
C 	-1.348760363	-3.451020119	-0.271059351
C 	-2.296658239	-4.420828120	-0.594246177
H 	-4.849520384	-2.373484647	-1.558462008
H 	-3.177211528	-0.651654399	-0.988870182
H 	-0.366515000	-3.748775318	0.090507773
H 	-2.054106579	-5.475170804	-0.484981340
H 	-4.301026966	-4.787989932	-1.310497683
H 	1.337516842	0.501832649	0.624329548
Sn	2.448155362	3.410511768	0.987042561
Cl	2.372828566	1.986983141	3.010933366
Cl	3.728741762	1.832951558	-0.428840169
