23

H 	-0.289895360	0.301317340	-0.159684160
C 	-0.044773610	-1.819864170	-0.068067200
C 	0.379441390	-0.541312250	-0.009096230
C 	1.748888130	-0.161557320	0.283549820
O 	2.223769440	0.961643450	0.337552130
H 	0.677390130	-2.617989790	0.111965140
C 	-1.389531590	-3.224465370	-1.590702440
C 	-1.450272030	-2.279244070	-0.355529680
C 	-2.424054170	-1.115086830	-0.630572510
C 	-1.931571760	-3.092981600	0.882173650
H 	-1.989819640	-2.454800950	1.771368430
H 	-2.387563280	-3.634282700	-1.788010720
H 	-0.703285400	-4.062221000	-1.418016570
H 	-1.056520660	-2.682126620	-2.483180500
H 	-3.427890930	-1.510834460	-0.823522610
H 	-2.117627250	-0.534695340	-1.508791460
H 	-2.490196030	-0.432133350	0.224048170
H 	-2.929556400	-3.502749870	0.684400810
H 	-1.254776020	-3.928338260	1.098232020
F 	2.605170950	-1.212370090	0.528733560
Zn	1.333493200	2.989579560	0.013879000
Cl	-0.754868930	2.772251580	0.472971480
Cl	3.004736220	4.144691840	-0.613621600
