27

H 	0.874621020	-1.711131290	1.919212080
C 	-0.566630700	-0.339614960	0.946320200
C 	0.540412210	-1.426472510	0.917778770
C 	1.744415300	-1.048446640	0.087222780
O 	2.907624840	-1.264759500	0.376269740
H 	-0.658540510	0.046039000	-0.079762020
H 	0.163527310	-2.337564440	0.430543270
H 	-0.007285200	0.552526780	2.876053580
C 	-0.091927540	0.834828190	1.821816820
H 	0.898621100	1.174802890	1.502165530
H 	-0.760089550	1.695270360	1.753784840
H 	1.495121860	-0.560131600	-0.884291900
C 	-2.499739930	-1.824922060	0.175449640
C 	-2.004632080	-0.889375390	1.301332040
C 	-3.009172540	0.283972340	1.389782140
C 	-2.027559920	-1.656842320	2.640336640
H 	-1.680986760	-1.038398630	3.473577110
H 	-3.521539370	-2.158935570	0.383463310
H 	-1.888952300	-2.725956700	0.068662780
H 	-2.513916850	-1.311157990	-0.792361950
H 	-4.028135250	-0.103376600	1.491348720
H 	-2.984642650	0.907281100	0.488881400
H 	-2.823100430	0.928751060	2.252211660
H 	-3.049257910	-1.973046310	2.875738370
H 	-1.409490790	-2.559006200	2.610077750
I 	4.592516480	-0.434908060	-2.311235860
I 	5.383183000	0.384017450	-4.760606870
