26

H 	0.925644480	-1.239016680	0.735318110
C 	-0.761986840	0.176452810	0.986938300
C 	0.617315270	-0.202408440	0.599137130
C 	1.637524880	0.602920040	0.006502120
O 	2.688675480	0.204762000	-0.482664510
H 	-0.861175050	1.265805850	0.924931400
H 	-2.022022830	0.024927140	2.775517790
H 	-0.298176940	0.232677980	3.121575370
C 	-1.015194540	-0.259872840	2.455691870
H 	-0.903932570	-1.342510560	2.580338330
Cl	1.315869170	2.415892820	-0.002983260
C 	-1.494185510	0.141328730	-1.456518310
C 	-1.829640410	-0.412221890	-0.051803020
C 	-3.237320090	0.075020500	0.356392640
C 	-1.804683830	-1.954882610	-0.088892670
H 	-2.039472670	-2.391676190	0.888568510
H 	-2.261403150	-0.169583720	-2.176001290
H 	-0.529915260	-0.234716800	-1.816343330
H 	-1.454443680	1.237204960	-1.453407040
H 	-3.962989410	-0.218010270	-0.412903810
H 	-3.270329110	1.167906710	0.450889080
H 	-3.569479220	-0.364030550	1.303155530
H 	-2.557116540	-2.317595970	-0.800071410
H 	-0.832848940	-2.338625550	-0.418355620
I 	2.254168250	-2.267955500	-1.864775130
I 	1.560042380	-4.534802060	-3.273446800
