26

H 	0.929685909	-1.233999826	0.731740403
C 	-0.761774393	0.173092691	0.990621558
C 	0.617239365	-0.198282874	0.601974627
C 	1.628270253	0.613892986	0.005550042
O 	2.674564796	0.223493202	-0.496899257
H 	-0.864598288	1.261635457	0.933223724
H 	-2.018683667	0.013548877	2.779006817
H 	-0.294211158	0.215472707	3.123133133
C 	-1.013382656	-0.271189945	2.455847221
H 	-0.904093326	-1.354614227	2.573388031
Cl	1.303705640	2.425139860	0.013056738
C 	-1.485952027	0.127784001	-1.457436554
C 	-1.826589655	-0.414334338	-0.050463518
C 	-3.230098016	0.086963861	0.349377533
C 	-1.812575042	-1.957053452	-0.079160992
H 	-2.051534906	-2.387055113	0.899776400
H 	-2.252767454	-0.185049988	-2.175777647
H 	-0.523001432	-0.254326140	-1.813816593
H 	-1.442091005	1.223210253	-1.461962830
H 	-3.955802735	-0.205247478	-0.419551748
H 	-3.252398499	1.180559736	0.434170540
H 	-3.568471044	-0.340357809	1.298911898
H 	-2.566879758	-2.317022284	-0.789126977
H 	-0.843840439	-2.349877450	-0.406017182
I 	2.240113880	-2.245375905	-1.883651023
I 	1.568088978	-4.534016892	-3.269124364
