35

H 	1.770616840	2.279126580	-0.464907740
C 	3.570629190	1.146310920	-0.548915740
C 	2.214610700	1.289685620	-0.445758770
C 	1.285441810	0.201419830	-0.254729270
O 	0.060433100	0.428963270	-0.057629730
H 	3.993838190	0.142716800	-0.579960600
H 	4.571335120	1.796716040	2.163345110
H 	4.404619140	-0.046756680	1.946759220
H 	2.890922480	1.006014820	2.272206820
C 	3.939284740	0.930892150	2.009428080
C 	0.609085720	-2.260521990	-0.042488640
C 	1.740191670	-1.249778440	-0.270892210
H 	-0.156912850	-2.175682950	-0.819936110
H 	0.118941680	-2.091480390	0.921590340
H 	1.010562610	-3.279963410	-0.057325690
H 	2.245812480	-1.437582780	-1.229484740
H 	2.519438190	-1.359822220	0.499031920
C 	5.965531540	1.956863050	-0.504928970
C 	4.520049790	2.253063710	-0.972563190
C 	4.068490600	3.644409150	-0.475349850
C 	4.505893210	2.235046130	-2.536398320
H 	3.501370760	2.437970730	-2.922260530
H 	6.657023340	2.679121240	-0.954308310
H 	6.281769060	0.951501590	-0.811774440
H 	6.064178300	2.028012570	0.582394710
H 	4.804591530	4.400376570	-0.772188190
H 	3.975276400	3.664954150	0.616047860
H 	3.104154610	3.937018100	-0.904133860
H 	5.191345890	3.004097540	-2.913132820
H 	4.835873430	1.263923380	-2.925583950
Ti	-1.255615910	2.076034190	0.345096750
Cl	-2.532853380	3.872351480	0.789795290
Cl	-2.842573720	0.528154780	0.612531390
Cl	0.186043530	2.468762980	2.059842990
Cl	-0.758670780	2.710039360	-1.767456870
