34

H 	1.507873820	1.217296990	1.936999440
C 	3.430227340	1.393518580	0.835447670
C 	2.022684050	0.899237020	1.030699650
C 	1.135201990	0.295339400	0.052615320
O 	-0.086885060	0.717727310	-0.016585160
H 	4.116910780	0.683960680	1.335372070
H 	4.617837400	3.111684000	1.483217520
H 	3.346637880	2.642888710	2.643838700
C 	3.586946870	2.755504860	1.580419890
H 	2.908692850	3.497163520	1.146741280
N 	1.521218580	-0.671722210	-0.803443000
C 	0.651991880	-1.076265970	-1.919740360
C 	2.768468740	-1.430729560	-0.660868560
H 	-0.150527050	-0.349825460	-2.038972060
H 	0.220946230	-2.067176310	-1.726311220
H 	1.258884930	-1.122727370	-2.832034290
H 	3.463771790	-1.183182560	-1.469530450
H 	2.532264840	-2.501562730	-0.700588750
H 	3.236053630	-1.212582200	0.298821660
C 	4.740358650	1.789870150	-3.284151030
C 	3.512984150	2.330938050	-2.880476750
C 	3.085398940	2.205126960	-1.554781180
C 	3.878609770	1.522278020	-0.616822130
C 	5.114766150	0.998903410	-1.024994670
C 	5.546639430	1.130297910	-2.349402250
H 	2.888255050	2.860386540	-3.597579180
H 	2.139981410	2.648591330	-1.245510860
H 	5.742427440	0.478458520	-0.301502600
H 	6.507846840	0.717020800	-2.649634430
H 	5.071546130	1.891549590	-4.316000930
Al	-0.742095010	2.323555970	0.659349280
F 	0.371887990	3.450041250	0.046151460
F 	-0.626032990	2.181591490	2.339575610
F 	-2.291572640	2.438487750	0.029672660
