22

H 	0.076925440	0.052022720	-0.083043700
C 	-0.007846450	-2.072166930	-0.150724870
C 	0.618454210	-0.889708630	-0.017597290
C 	2.047949010	-0.687864750	0.212767360
O 	2.608681080	0.379742630	0.307979960
H 	0.585844970	-2.985058660	-0.082734870
C 	-1.636105680	-3.085413150	-1.712436530
C 	-1.483634250	-2.280071680	-0.389825890
C 	-2.275004590	-0.960382640	-0.491761590
C 	-2.032362460	-3.133430960	0.789915080
H 	-1.937872530	-2.595058990	1.740080100
H 	-2.695914000	-3.306476180	-1.888491400
H 	-1.091199390	-4.035957170	-1.664517240
H 	-1.256308310	-2.511965430	-2.565886570
H 	-3.335819390	-1.177088310	-0.662825960
H 	-1.919770570	-0.341951670	-1.324419660
H 	-2.197520240	-0.372803660	0.430693440
H 	-3.093483460	-3.354757580	0.621816910
H 	-1.494104980	-4.084948100	0.877459730
Cl	3.072133100	-2.213600490	0.370795400
I 	1.172394540	2.861667130	-0.229200430
I 	-0.305002810	5.117119790	-0.807332070
