22

H 	0.082767690	0.058990048	-0.202574639
C 	-0.016272214	-2.066331698	-0.146313616
C 	0.615321628	-0.881691971	-0.077929037
C 	2.043008015	-0.681950241	0.155037842
O 	2.615818040	0.382082194	0.192931253
H 	0.573636368	-2.974607072	-0.019273472
C 	-1.624734898	-3.122462246	-1.693658898
C 	-1.487850805	-2.284421268	-0.390092703
C 	-2.281908951	-0.970831354	-0.527911396
C 	-2.040823338	-3.111968510	0.804661107
H 	-1.959476488	-2.549597232	1.741661641
H 	-2.680756686	-3.359586213	-1.869534077
H 	-1.069670744	-4.065040874	-1.620675637
H 	-1.246399870	-2.565522721	-2.558170274
H 	-3.341335965	-1.193801944	-0.696951828
H 	-1.926355310	-0.372418694	-1.374517011
H 	-2.207606647	-0.360397762	0.379402862
H 	-3.097900194	-3.347074369	0.633064657
H 	-1.494647223	-4.055522525	0.920551106
Cl	3.047259165	-2.203246218	0.415797835
I 	1.190039059	2.868648880	-0.196230442
I 	-0.271677392	5.178599082	-0.588565366
