21

H 	  1.929337	  0.926258	 -0.008041
C 	  0.000000	  0.000000	  0.000000
C 	  1.358558	  0.000000	  0.000000
C 	  2.201048	 -1.167470	  0.000000
O 	  3.429403	 -1.172387	  0.011472
H 	 -0.513585	 -0.960788	  0.006567
C 	 -2.594204	  3.385471	 -0.023576
C 	 -1.204874	  3.584281	 -0.038166
C 	 -0.339293	  2.495686	 -0.030468
C 	 -0.850992	  1.175456	 -0.007909
C 	 -2.253050	  0.992838	  0.005663
C 	 -3.116438	  2.087236	 -0.002327
H 	 -0.801166	  4.593768	 -0.056778
H 	  0.733783	  2.666426	 -0.044437
H 	 -2.654915	 -0.018354	  0.021514
H 	 -4.192443	  1.930897	  0.008219
H 	 -3.264866	  4.241786	 -0.030198
Cl	  1.387877	 -2.788747	 -0.020636
Zn	  4.981702	  0.379041	  0.100958
Cl	  4.024500	  2.283802	 -0.218621
Cl	  6.752560	 -0.741273	  0.477483
