21

H 	-0.275351937	0.267883181	-0.162709661
C 	-0.047635166	-1.858077311	-0.068919265
C 	0.400870099	-0.575961196	-0.042465713
C 	1.770168233	-0.165790749	0.129461512
O 	2.178768821	0.992123410	0.165402276
H 	0.679936338	-2.659368464	0.055577107
C 	-4.065149311	-3.190729499	-0.593784169
C 	-3.790373199	-1.814400430	-0.607672358
C 	-2.488188547	-1.356235150	-0.438175193
C 	-1.426159456	-2.273842141	-0.249913256
C 	-1.720136918	-3.656870377	-0.239437574
C 	-3.026982256	-4.111060153	-0.409955328
H 	-4.598143017	-1.101059034	-0.752730730
H 	-2.291665006	-0.287604298	-0.453866716
H 	-0.909799406	-4.369106368	-0.096852475
H 	-3.237479770	-5.177795883	-0.399630492
H 	-5.086028438	-3.541497882	-0.727476957
Cl	3.019749720	-1.468275840	0.309155268
Zn	1.229384257	2.970894561	0.077629076
Cl	-0.824657362	2.687313535	-0.511418158
Cl	2.811340201	4.282449698	0.634448125
