64

C 	-5.136535576	1.336340559	3.915044747
C 	-2.629090523	0.542301150	2.861231169
C 	-1.078388200	-1.359085095	3.938166869
O 	0.958500819	-2.162525382	3.000477264
H 	1.249685505	-8.384983118	-6.079070269
H 	-5.308483495	0.535981603	5.820449098
H 	-1.969360865	1.411300798	1.115414001
H 	10.699722424	0.719604004	2.813185563
H 	7.927004836	-0.728221571	3.999612788
H 	0.595697327	-7.608773313	-2.890323976
H 	9.769340541	-2.310667343	1.698561392
C 	-7.352882361	0.223540806	2.335087575
H 	-7.295038166	0.873911367	0.374010248
H 	3.746789996	-7.622393155	-4.002820768
H 	-2.785864054	-2.757171341	-2.543649957
H 	-9.159776895	0.810112891	3.156864479
H 	-7.271784254	-1.843666337	2.329302121
N 	5.417068027	-0.807277735	-0.569573488
C 	4.885295373	-1.697696521	-2.925869648
N 	2.556407876	-2.801923835	-3.121057891
C 	7.578513128	0.785025529	0.145448081
H 	4.031574558	-0.994203245	0.750186935
C 	1.647392049	-4.344364860	-5.242668983
H 	1.615370848	-3.016963858	-1.463676069
H 	8.779434194	0.845209017	-1.531180979
C 	1.798260942	-7.155558463	-4.512888765
C 	9.077196412	-0.457766519	2.301268393
H 	8.205886460	4.972514265	-2.768017518
H 	3.006541584	-4.005546547	-6.761072730
C 	6.722946598	3.489440025	0.724153615
C 	5.420731885	4.117775133	2.947849998
C 	4.626955280	6.591349869	3.402646661
C 	5.130279052	8.494410639	1.644993704
C 	6.428168938	7.897444266	-0.571442465
C 	7.211227924	5.418005502	-1.024822968
H 	5.004736325	2.675294553	4.351439107
H 	3.613453302	7.034361540	5.137792244
H 	4.517214632	10.424955150	2.003627137
H 	6.834046904	9.363386438	-1.956615400
C 	-0.997382747	-3.407217191	-6.246558548
C 	-1.663476869	-4.879919839	-8.679506459
H 	-3.364350171	-4.080886470	-9.548309443
H 	-2.046546597	-6.877587290	-8.313160581
H 	-0.138422892	-4.764458499	-10.075701334
C 	-0.820170353	-0.572516075	-6.919907197
H 	0.670318738	-0.218958106	-8.309810153
H 	-2.610618828	0.083058358	-7.727246669
H 	-0.408262347	0.587703011	-5.260737089
C 	-3.136065548	-3.790835959	-4.300172198
H 	-3.414882789	-5.784587539	-3.825073961
H 	-4.927630189	-3.090452926	-5.067610953
C 	-5.913010775	9.491770179	4.711604541
C 	-6.013233950	7.918996763	6.824894885
C 	-5.726409599	5.308643063	6.551784617
C 	-5.352754487	4.215894702	4.168138432
C 	-5.245730452	5.822369608	2.060250853
C 	-5.522634970	8.430490123	2.326947466
H 	-6.321312201	8.719740486	8.694696342
H 	-5.815206450	4.108604217	8.220890527
H 	-4.952060663	5.050495609	0.177955075
H 	-5.437005942	9.636307583	0.662622148
H 	-6.137970311	11.525467942	4.918225363
H 	-1.754173670	-2.198085171	5.741101520
S 	6.917530545	-1.456538574	-5.397003671
