64

C 	-5.663623959	2.026165466	3.404245200
C 	-3.080755910	1.025770534	2.862025119
C 	-2.029970165	-1.164926961	4.037491063
O 	0.103008971	-2.038289514	3.541382492
H 	2.093088151	-8.944628156	-5.871183596
H 	-6.546836955	0.783828803	4.808553312
H 	-1.895928981	2.002922930	1.490351859
H 	10.471498122	1.322695055	2.515483854
H 	7.869738179	-0.167432059	4.000851239
H 	0.896893234	-8.162103698	-2.848112521
H 	9.681674578	-1.852685603	1.748859212
C 	-7.361857578	2.001881975	1.029453855
H 	-6.571327220	3.145355064	-0.499519470
H 	4.163043938	-7.873696040	-3.488904458
H 	-2.798472911	-3.351947067	-3.117243706
H 	-9.233020167	2.751149728	1.496027160
H 	-7.587321180	0.070214513	0.324159632
N 	5.157537633	-0.868890970	-0.430173759
C 	4.708326849	-1.837385171	-2.819083039
N 	2.451989434	-3.167172821	-3.010043209
C 	7.203619433	0.926151429	0.050325278
H 	3.736719003	-0.942902471	0.848009345
C 	1.960841564	-4.859649673	-5.142721481
H 	1.623339634	-3.642992688	-1.355350543
H 	8.315844370	0.911118147	-1.686969907
C 	2.275594858	-7.621569763	-4.296024589
C 	8.903589144	0.005008889	2.216745064
H 	7.669326506	4.946648469	-3.131474326
H 	3.468936856	-4.438913924	-6.491225414
C 	6.228994016	3.618893899	0.438784296
C 	4.896993061	4.333116644	2.617956030
C 	4.015907141	6.798860393	2.927494492
C 	4.458840104	8.612523756	1.061972584
C 	5.780589729	7.930967913	-1.115567503
C 	6.651645361	5.457944183	-1.419571865
H 	4.534308225	2.960969081	4.104823895
H 	2.987281477	7.308065050	4.634344393
H 	3.784564979	10.539723452	1.308153423
H 	6.138089251	9.325451396	-2.584724534
C 	-0.592525100	-4.209756721	-6.523299093
C 	-0.894256140	-5.906366970	-8.876404413
H 	-2.513998945	-5.281379361	-10.003704111
H 	-1.220538312	-7.888308234	-8.388622466
H 	0.779511044	-5.813659766	-10.092629841
C 	-0.492425495	-1.435497361	-7.415668001
H 	1.110523598	-1.113538410	-8.684324221
H 	-2.223460111	-0.944011155	-8.440112344
H 	-0.297643014	-0.134157402	-5.823618490
C 	-2.906592722	-4.564993258	-4.789819002
H 	-3.116370350	-6.522911907	-4.154917587
H 	-4.642378355	-4.061553948	-5.800956422
C 	-5.025043927	9.444235611	6.847484331
C 	-5.167379289	7.285609339	8.371926679
C 	-5.373396665	4.892406734	7.261075932
C 	-5.437078696	4.657830419	4.625782818
C 	-5.294743334	6.816456691	3.101340451
C 	-5.088725959	9.209659278	4.212191217
H 	-5.118648090	7.465113423	10.388523422
H 	-5.482315489	3.240568215	8.427619969
H 	-5.343474533	6.636952608	1.084743727
H 	-4.979807134	10.861497815	3.045647161
H 	-4.867393922	11.275578232	7.697537018
H 	-3.189734998	-2.091326681	5.410531918
S 	6.851963095	-1.407712510	-5.449552684
