29

H 	1.815238450	2.248835730	-0.532053600
C 	3.498304540	0.959182540	-0.669165880
C 	2.140678770	1.212610480	-0.544695050
C 	1.150246020	0.199621570	-0.417117570
O 	-0.095396310	0.471678030	-0.306498780
H 	3.896717530	-0.040305250	-0.839292800
H 	3.860539870	1.602022380	1.919199510
H 	4.988863450	0.168637930	1.531813150
H 	3.194574240	-0.131357230	1.904865960
C 	3.981785960	0.562866360	1.634010820
C 	0.727600130	-2.069905850	0.672774890
C 	1.477393900	-1.284824650	-0.422887750
H 	-0.352296830	-1.930925960	0.576417360
H 	1.025346900	-1.730170110	1.672442120
H 	0.956402280	-3.138248320	0.591173850
H 	1.182975420	-1.666164190	-1.412619160
H 	2.555743330	-1.446851400	-0.330635590
O 	4.324366440	1.984158060	-0.951968150
C 	5.739367500	1.649465350	-1.141288650
C 	6.452302720	2.892794790	-1.645235570
H 	5.806286510	0.821658980	-1.860727810
H 	6.141235470	1.315957740	-0.175302960
H 	6.034967020	3.219805410	-2.603714060
H 	7.516964180	2.669924440	-1.785859290
H 	6.361535010	3.711580320	-0.923217150
B 	-0.761827590	1.973565800	-0.259654800
F 	-2.104632340	1.712686330	-0.120440950
F 	-0.415568800	2.577989960	-1.466803990
F 	-0.180656520	2.597983030	0.844688740
