27

H 	1.680883735	-1.338625587	-0.026040583
C 	0.000000000	0.000000000	0.000000000
C 	0.602122590	-1.240434644	0.000000000
C 	-0.181023966	-2.425407144	0.000000000
O 	0.236796540	-3.610740439	-0.089872440
H 	-1.084755759	0.033384029	0.107972459
H 	-0.689306066	1.304262224	-2.430390349
H 	-1.175563346	-0.496351501	-2.553199456
H 	0.611689908	-0.005601574	-2.720522122
C 	-0.404436359	0.259249410	-2.454815147
H 	-1.275906421	-2.301026363	0.086446576
C 	1.937143960	3.783418051	0.461794364
C 	0.545854452	3.677170509	0.577528245
C 	-0.072538797	2.438885492	0.412568811
C 	0.687253773	1.280913633	0.138733539
C 	2.089257436	1.403988997	0.023907939
C 	2.703974779	2.643394531	0.183110626
H 	-0.053212419	4.558553678	0.793852232
H 	-1.154486140	2.355686763	0.498770977
H 	2.697031482	0.531196929	-0.197402091
H 	3.784329042	2.724370694	0.090299426
H 	2.422427688	4.748739617	0.585749919
Sn	2.408835554	-4.391861428	-0.570959324
Cl	2.204483966	-2.958690135	-2.481225991
Cl	1.251559967	-6.450375338	-0.556087664
Cl	4.591454691	-5.227980632	-1.095931090
Cl	2.989803228	-3.344501175	1.493829108
