27

H 	0.277316880	-2.052538860	-1.293462470
C 	-0.642909120	-0.260084250	-0.492925620
C 	0.411663280	-1.031286740	-0.943498540
C 	1.735754690	-0.515276590	-0.911683520
O 	2.746527540	-1.182919920	-1.262020280
H 	-0.426499750	0.782667670	-0.259979600
H 	-0.648972200	-1.617465520	1.943023130
H 	-1.253148440	0.120897940	2.234589620
H 	0.580251500	-0.221355700	2.079525660
C 	-0.446564520	-0.553172650	1.969741230
H 	1.868469810	0.519181600	-0.552948090
C 	-4.821362130	-1.165945730	-0.699858270
C 	-3.882712220	-2.187718310	-0.904467340
C 	-2.518049700	-1.912268640	-0.838589430
C 	-2.062604770	-0.604269190	-0.562062040
C 	-3.020333630	0.412197470	-0.351148160
C 	-4.385540440	0.136034120	-0.424152550
H 	-4.219474640	-3.200357740	-1.115734610
H 	-1.803231970	-2.716780880	-0.991654470
H 	-2.681927970	1.423632340	-0.131839170
H 	-5.109563930	0.932187580	-0.265154860
H 	-5.885585200	-1.385233300	-0.752555870
Sn	4.904140580	-0.312372200	-0.945825530
Cl	5.474277080	-2.354549140	-1.999943890
Cl	4.205735740	-0.265866770	1.347426000
Cl	7.128597860	0.509128060	-0.607551470
Cl	4.073120410	1.526964260	-2.225972440
