27

H 	0.277316881	-2.052538863	-1.293462470
C 	-0.642909116	-0.260084251	-0.492925621
C 	0.411663284	-1.031286736	-0.943498538
C 	1.735754694	-0.515276592	-0.911683524
O 	2.746527544	-1.182919917	-1.262020276
H 	-0.426499751	0.782667674	-0.259979596
H 	-0.648972197	-1.617465517	1.943023135
H 	-1.253148445	0.120897943	2.234589624
H 	0.580251504	-0.221355701	2.079525664
C 	-0.446564525	-0.553172653	1.969741230
H 	1.868469812	0.519181599	-0.552948092
C 	-4.821362135	-1.165945729	-0.699858268
C 	-3.882712221	-2.187718314	-0.904467335
C 	-2.518049702	-1.912268644	-0.838589432
C 	-2.062604773	-0.604269194	-0.562062036
C 	-3.020333630	0.412197466	-0.351148156
C 	-4.385540440	0.136034116	-0.424152550
H 	-4.219474643	-3.200357745	-1.115734608
H 	-1.803231971	-2.716780877	-0.991654472
H 	-2.681927975	1.423632339	-0.131839174
H 	-5.109563933	0.932187583	-0.265154859
H 	-5.885585206	-1.385233299	-0.752555872
Sn	4.904140578	-0.312372203	-0.945825532
Cl	5.474277077	-2.354549144	-1.999943887
Cl	4.205735744	-0.265866773	1.347425997
Cl	7.128597858	0.509128062	-0.607551465
Cl	4.073120413	1.526964259	-2.225972445
