27

H 	1.432445573	2.583299895	-0.709891947
C 	3.263422257	1.470525745	-0.544892620
C 	1.901635940	1.649535587	-0.423553338
C 	1.081326521	0.621956921	0.113710931
O 	-0.152443761	0.687706211	0.361004229
H 	3.663976985	0.482329535	-0.315781809
H 	5.033738892	2.144471909	1.575205403
H 	3.554348025	1.250088165	2.285992564
H 	3.398421012	3.029280990	1.763243848
C 	3.968377562	2.108207056	1.768826679
H 	1.572556805	-0.341255679	0.343113362
C 	6.021302511	4.081112864	-2.509317295
C 	6.399981541	2.779867751	-2.157560683
C 	5.493632384	1.944407988	-1.506784378
C 	4.188323841	2.388692473	-1.203551406
C 	3.821319101	3.703830095	-1.563644855
C 	4.730761099	4.538524168	-2.208276565
H 	7.399817480	2.420426921	-2.389172122
H 	5.788081117	0.933746493	-1.229609014
H 	2.827012220	4.075264456	-1.332292839
H 	4.435684021	5.549628096	-2.478340920
H 	6.727332705	4.736977463	-3.013374827
Sn	-1.581247130	2.562914272	0.322745502
Cl	0.068694280	3.506264355	1.783102385
Cl	-3.080114557	0.951537691	1.179395617
Cl	-3.058974621	4.448301469	0.335136957
Cl	-1.087498653	2.598407649	-2.012375667
