28

H 	1.589085950	2.202625730	-0.054183020
C 	3.372055100	1.076314790	-0.359934730
C 	2.041912670	1.216037400	-0.088129260
C 	1.088025060	0.132212140	0.175608670
O 	-0.152516390	0.326640080	0.200169380
H 	3.771406680	0.079216480	-0.553588050
H 	4.373175800	1.724733980	2.185109410
H 	5.085214640	0.079435010	1.688579740
H 	3.346359840	0.192564310	2.350223190
C 	4.216631000	0.683727560	1.928971470
N 	1.569933910	-1.135397930	0.384430620
H 	2.549700890	-1.303044100	0.570861960
H 	0.901407570	-1.855153020	0.633854950
C 	3.997494930	2.232285350	-2.441818550
C 	4.245720070	2.206713350	-0.901811910
C 	5.745637920	1.917188690	-0.654609470
C 	3.873026290	3.582354690	-0.306413960
H 	3.973714240	3.584294850	0.784905420
H 	4.618223490	3.010124390	-2.903932800
H 	2.945975240	2.444554270	-2.661591160
H 	4.257886050	1.270479330	-2.901225300
H 	6.360986060	2.632401950	-1.213170700
H 	6.014517260	0.907618270	-0.991602420
H 	6.006105750	2.006044390	0.404628830
H 	4.540136400	4.352968140	-0.710209460
H 	2.846690200	3.871854150	-0.555240170
I 	-1.256956290	2.739963150	-0.237183500
I 	-2.435676710	5.236489260	-0.665919520
