28

H 	1.622672898	2.237811599	0.167055591
C 	3.358192414	1.095514728	-0.316195166
C 	2.051003491	1.247580428	0.047207964
C 	1.092683562	0.163654960	0.285084420
O 	-0.145862479	0.365087926	0.326217640
H 	3.710382549	0.101714439	-0.596961242
H 	4.521703089	1.624911119	2.177973057
H 	5.143189846	-0.029727666	1.601253214
H 	3.451286457	0.128246199	2.364941661
C 	4.311755035	0.598659418	1.902766719
N 	1.567564930	-1.111859967	0.447733518
H 	2.544246851	-1.287672028	0.640419518
H 	0.893929291	-1.835518545	0.668924230
C 	3.850326650	2.343440171	-2.377277595
C 	4.219199336	2.230969556	-0.865940952
C 	5.722851055	1.889167141	-0.755788308
C 	3.935128900	3.582639013	-0.177375367
H 	4.126513721	3.530546457	0.900151838
H 	4.461270761	3.122292270	-2.849738581
H 	2.793698832	2.601787648	-2.500511152
H 	4.036723224	1.398722021	-2.902246935
H 	6.315708853	2.629334734	-1.305452342
H 	5.935604776	0.902143356	-1.185752916
H 	6.063304062	1.890826351	0.283958993
H 	4.586335688	4.356251632	-0.600279753
H 	2.900260588	3.907512571	-0.326053727
I 	-1.218138545	2.673419558	-0.520836401
I 	-2.365662215	5.057791571	-1.426498266
