32

H 	1.994207162	0.900763597	0.365483689
C 	0.000000000	0.000000000	0.000000000
C 	1.505250201	-0.000000000	0.000000000
C 	2.355394885	-1.182647482	-0.000000000
O 	3.340778294	-1.270807572	0.789640655
H 	-0.376452081	-0.925048769	-0.449132420
H 	-1.678425235	1.224379075	-0.663597039
H 	-0.342638188	1.125737517	-1.836809957
C 	-0.588341450	1.198161773	-0.770834424
H 	-0.185196656	2.148100221	-0.403938682
N 	2.058495259	-2.240850455	-0.829603934
C 	2.817465214	-3.486831687	-0.684942389
C 	1.316299605	-2.091025579	-2.083797571
H 	3.135498072	-3.597486841	0.352014943
H 	3.710525184	-3.487020605	-1.327009857
H 	2.174835242	-4.325880882	-0.974739858
H 	0.424365090	-2.731390761	-2.093479470
H 	1.958917251	-2.380973290	-2.926875256
H 	1.019093045	-1.051893123	-2.226724993
C 	-0.880793027	-0.222160484	4.251197226
C 	-0.661236578	1.022518764	3.652737089
C 	-0.414385468	1.109891850	2.281802144
C 	-0.390059919	-0.046485573	1.486480622
C 	-0.611464995	-1.291033076	2.095813192
C 	-0.860669644	-1.379758147	3.467287291
H 	-0.656492833	1.923767701	4.260579477
H 	-0.218447789	2.082576440	1.838191885
H 	-0.574123530	-2.196251749	1.491732167
H 	-1.026477308	-2.352303709	3.925542003
H 	-1.048533122	-0.289104524	5.323056662
I 	3.144722064	-0.118249019	3.184247683
I 	2.805719011	0.988315431	5.730489523
