28

H 	1.992355660	0.968968999	0.037741907
C 	0.000000000	0.000000000	0.000000000
C 	1.496041886	0.000000000	0.000000000
C 	2.341680492	-1.149366680	-0.000000000
O 	3.609049935	-1.028837586	0.055142360
H 	-0.381438639	-0.996965971	-0.233557918
H 	-1.670253207	1.036227647	-0.940098239
H 	-0.307025328	0.708338471	-2.038617457
C 	-0.578122886	1.007222930	-1.020273374
H 	-0.189383465	2.016782975	-0.853651669
C 	1.769964454	-2.547211739	-0.078108080
H 	1.180492541	-2.671972941	-0.995969728
H 	1.093686524	-2.736372270	0.764340232
H 	2.585473266	-3.272864516	-0.067535382
C 	-0.216067814	1.604509418	2.002751708
C 	-0.555871168	1.874642498	3.328693256
C 	-1.074439072	0.858753154	4.141085704
C 	-1.251135191	-0.428544290	3.624773111
C 	-0.898345610	-0.668078130	2.301659287
C 	-0.392144744	0.321913090	1.450118277
H 	0.193173288	2.397700406	1.382573379
H 	-0.412954196	2.874691963	3.729599295
H 	-1.338376037	1.063436704	5.175658815
H 	-1.651859016	-1.239220195	4.227051454
F 	-1.071489838	-1.942844046	1.810379730
Zn	4.817534154	0.651584941	0.324281274
Cl	4.046018342	2.299190550	-0.859359652
Cl	6.333423032	0.077125190	1.729630631
