28

H 	1.941964200	2.196768130	1.048304300
C 	3.654186140	0.994448130	0.296368000
C 	2.201082250	1.276773640	0.523063850
C 	1.108963280	0.521553680	-0.002795650
O 	-0.084167780	0.968010030	0.065395350
H 	3.811059600	-0.062869450	0.064205370
H 	5.594059810	1.237702500	1.258873910
H 	4.284686140	0.771192020	2.371980960
C 	4.535949330	1.387238320	1.501057090
H 	4.390049690	2.437446620	1.776858120
C 	1.325695900	-0.824915720	-0.655850780
H 	1.921692160	-1.485371570	-0.013936110
H 	1.884251280	-0.701941470	-1.593243290
H 	0.358929760	-1.285467440	-0.869919770
C 	3.918371140	3.210627550	-0.975918570
C 	4.168541140	3.942729290	-2.136334260
C 	4.482089370	3.277724380	-3.328563700
C 	4.544807410	1.879672580	-3.357629820
C 	4.283039560	1.175124840	-2.187120970
C 	3.979570680	1.802106200	-0.971503070
H 	3.664136730	3.732563960	-0.056325630
H 	4.111259110	5.028315760	-2.113029420
H 	4.673897530	3.842594600	-4.237850580
H 	4.788572580	1.337552600	-4.267571190
F 	4.338253920	-0.203341810	-2.232520310
Zn	-0.717661770	2.934476540	0.384609410
Cl	0.230934300	3.776992810	2.146875360
Cl	-2.007986920	3.378168620	-1.274102440
