28

H 	1.864290258	2.346938067	0.737433775
C 	3.590315053	1.070846335	0.187674970
C 	2.132195206	1.368082513	0.341553140
C 	1.051353766	0.510078879	-0.021434414
O 	-0.157751520	0.891782910	0.105686339
H 	3.742753883	0.010607715	-0.028293440
H 	5.462801385	1.283715056	1.281192258
H 	4.076334520	0.817474570	2.297546270
C 	4.393003627	1.442375857	1.455483602
H 	4.237200687	2.488229482	1.738340901
C 	1.297553927	-0.882936284	-0.556060585
H 	1.857109394	-1.482732052	0.173771735
H 	1.902627721	-0.845360797	-1.470022559
H 	0.340539823	-1.364408239	-0.765934637
C 	4.131060815	3.270413014	-1.037743580
C 	4.503956893	3.980431706	-2.179400779
C 	4.771142652	3.299178442	-3.373314964
C 	4.663170428	1.906061333	-3.423331376
C 	4.284410015	1.227082007	-2.270944825
C 	4.024044595	1.866922489	-1.052643536
H 	3.918007108	3.808903920	-0.118022402
H 	4.582333221	5.063731084	-2.139784437
H 	5.059571073	3.847976348	-4.266360038
H 	4.864269852	1.346413059	-4.332653673
F 	4.175422692	-0.144016037	-2.338580499
Zn	-0.964164434	2.740842059	0.641753695
Cl	0.172296863	3.579516903	2.289760660
Cl	-2.589622960	3.097725002	-0.712295439
