25

H 	  1.910628	  0.926817	 -0.013754
C 	  0.000000	  0.000000	  0.000000
C 	  1.344132	  0.000000	 -0.000000
C 	  2.201306	 -1.178525	 -0.000000
O 	  3.406493	 -1.189023	 -0.057049
H 	 -0.515000	 -0.961239	  0.007373
C 	 -0.116435	  2.541569	  0.011414
C 	 -0.894878	  1.211671	 -0.016731
C 	 -1.828054	  1.118579	  1.224040
C 	 -1.758689	  1.132038	 -1.308182
H 	 -2.325381	  0.194543	 -1.350323
H 	 -0.818326	  3.382967	  0.003412
H 	  0.537736	  2.642372	 -0.862294
H 	  0.499291	  2.625823	  0.914440
H 	 -2.538799	  1.953523	  1.213871
H 	 -1.250324	  1.167335	  2.153913
H 	 -2.398982	  0.182601	  1.221449
H 	 -2.472021	  1.964729	 -1.325305
H 	 -1.130423	  1.195662	 -2.203712
Br	  1.273188	 -2.976089	  0.114712
Sn	  5.376701	  0.851851	 -0.251975
Cl	  6.585879	 -1.149586	 -0.268072
Cl	  4.277604	  1.367734	  1.767588
Cl	  7.033314	  2.528530	 -0.405293
Cl	  4.034200	  1.245751	 -2.147956
