64
GO, radical, enant=R, R2=Ph, R1=H, Rch=S
C	-2.99706073	 1.07220059	 1.80144898
C	-1.63026582	 0.54281439	 1.51451847
C	-1.07421395	-0.61645280	 2.13654826
O	 0.05451000	-1.07861636	 1.87401891
H	 1.10761455	-4.73329338	-3.10689656
H	-3.46443692	 0.41478434	 2.54457683
H	-1.00328241	 1.05990117	 0.78866024
H	 5.54127817	 0.69994008	 1.33113673
H	 4.16448610	-0.08860123	 2.11715930
H	 0.47461546	-4.31919927	-1.50715624
H	 5.12332155	-0.98039900	 0.92545644
C	-3.89572726	 1.05935032	 0.54476352
H	-3.47739661	 1.66445022	-0.26433432
H	 2.20298798	-4.16658051	-1.84624873
H	-1.48088809	-1.77377400	-1.64957433
H	-4.88590386	 1.45584574	 0.79166348
H	-4.01503746	 0.03715592	 0.17153789
N	 2.72925138	-0.45979730	-0.22763815
C	 2.49153927	-0.97230236	-1.49179450
N	 1.29753693	-1.67599568	-1.59284627
C	 3.81199124	 0.49009823	 0.02663099
H	 1.97738654	-0.49896250	 0.44874722
C	 1.03763267	-2.57161586	-2.72141101
H	 0.85903434	-1.92778871	-0.71722062
H	 4.40055533	 0.48214296	-0.89270603
C	 1.20419294	-4.03316103	-2.27335831
C	 4.71157647	 0.00265059	 1.17305097
H	 4.05843281	 2.61765364	-1.65710485
H	 1.83568233	-2.34897209	-3.43500856
C	 3.29624168	 1.91503618	 0.23219465
C	 2.59137713	 2.29298658	 1.38536267
C	 2.12512654	 3.59780198	 1.54916337
C	 2.35951657	 4.55755130	 0.56197169
C	 3.05895635	 4.19688748	-0.59033290
C	 3.51989914	 2.88821968	-0.75120508
H	 2.39945258	 1.56687736	 2.17217926
H	 1.58080128	 3.86726148	 2.45238944
H	 2.00270554	 5.57738146	 0.69224498
H	 3.24813695	 4.93481636	-1.36777732
C	-0.31355078	-2.22770732	-3.45198122
C	-0.47321997	-3.12551480	-4.69719093
H	-1.33035095	-2.79478560	-5.29373224
H	-0.64588106	-4.17431295	-4.43906784
H	 0.41249948	-3.07645626	-5.34078971
C	-0.26058035	-0.75963249	-3.92420251
H	 0.58766378	-0.58925915	-4.59554647
H	-1.17660442	-0.49954919	-4.46631511
H	-0.15750590	-0.07099304	-3.08172619
C	-1.53810263	-2.41569040	-2.53466306
H	-1.64911217	-3.45177633	-2.19868770
H	-2.45664083	-2.14928179	-3.06973394
C	-2.65913873	 4.99767426	 3.62353266
C	-2.73445936	 3.85537843	 4.43023281
C	-2.84347906	 2.58895015	 3.84239591
C	-2.87717814	 2.46481771	 2.44785885
C	-2.80185751	 3.60711354	 1.64115869
C	-2.69283781	 4.87354181	 2.22899560
H	-2.70867192	 3.95036790	 5.49736985
H	-2.90111642	 1.71483485	 4.45970443
H	-2.82764495	 3.51212407	 0.57402166
H	-2.63520045	 5.74765712	 1.61168707
H	-2.57571394	 5.96677904	 4.07336117
H	-1.68793507	-1.10668242	 2.86313019
S	 3.62590272	-0.74492938	-2.88377909
