60
GO, R2=Ph, R1=H, Rch=S
C	-2.45515696	-0.18252687	 2.48388350
C	-1.18771642	-0.43476093	 2.07388899
C	-0.49442834	-1.66130150	 2.44876372
O	 0.62680271	-1.98454424	 2.06023021
H	-0.64830911	 0.08373594	-2.60629557
H	-2.93118378	-0.93643926	 3.11469092
H	-0.64194923	 0.24936427	 1.43061010
C	-1.69265124	-2.41278851	-1.94538466
H	-1.60952313	-3.45348543	-1.61607067
H	-2.71420352	-2.27342134	-2.31563753
H	-1.57700366	-1.76660012	-1.07122190
H	 2.27931591	-3.77400204	-2.03813225
H	 0.65027106	-4.17743034	-1.48946778
H	 1.08787699	-4.37601853	-3.19144903
H	 5.51021445	 0.71198152	 1.48956103
H	 4.41306713	-0.53940717	 2.09158199
H	 5.29548853	-0.80282828	 0.58307495
N	 2.67336962	-0.43156947	-0.03457823
C	 2.27954423	-0.66164484	-1.34207362
N	 1.13822630	-1.45998204	-1.41238897
C	 3.64347088	 0.58400346	 0.36825145
H	 2.12612218	-0.85272496	 0.70451697
C	 0.81518437	-2.27692824	-2.58587946
H	 0.86729524	-1.88084254	-0.53391788
H	 4.06205997	 0.96444779	-0.56590468
C	 1.22139775	-3.73796902	-2.31482906
C	 4.78301064	-0.04788849	 1.18595117
H	 3.11746163	 3.07673190	-0.60143565
H	 1.44967394	-1.89119184	-3.38859509
C	 2.95973071	 1.75220900	 1.08890153
C	 2.49014969	 1.64363479	 2.40644043
C	 1.84632567	 2.71049433	 3.03167271
C	 1.66180539	 3.91604031	 2.35413771
C	 2.12518071	 4.04017096	 1.04508375
C	 2.76500037	 2.96795214	 0.42187040
H	 2.62117053	 0.71801635	 2.96128884
H	 1.49166502	 2.60105731	 4.05494079
H	 1.16571217	 4.75107001	 2.84445441
H	 1.99270632	 4.97579762	 0.50555405
C	-0.67514354	-2.06266061	-3.05192856
C	-0.96593998	-2.93517496	-4.29184740
H	-1.93941866	-2.67051643	-4.71785558
H	-0.99745061	-4.00167926	-4.05221250
H	-0.21355334	-2.78573240	-5.07408656
C	-0.85898304	-0.58230431	-3.44640796
H	-0.18804102	-0.30403541	-4.26550655
H	-1.88717738	-0.39951320	-3.77682042
C	-4.52743318	 3.45664234	 1.34123634
C	-3.73371298	 3.43558270	 2.49485796
C	-3.06515947	 2.26152138	 2.86349644
C	-3.19032616	 1.10851970	 2.07851331
C	-3.98404636	 1.12957933	 0.92489170
C	-4.65259986	 2.30364065	 0.55625321
H	-3.63793208	 4.31789042	 3.09554803
H	-2.45778355	 2.24540600	 3.74627855
H	-4.07982726	 0.24727162	 0.32420162
H	-5.25997578	 2.31975604	-0.32652890
H	-5.03902820	 4.35506544	 1.05914431
H	-1.03641951	-2.30657864	 3.10812931
S	 3.12862695	 0.01551400	-2.79004270
