67

C 	-2.372434541	1.943720869	1.967458845
C 	-0.375140537	1.971010976	-0.177232732
C 	-0.076170252	-0.551973366	-1.454082821
O 	1.912688643	-1.642451570	-1.821676688
H 	6.618407126	-11.028583409	-5.840218318
H 	-4.017448037	0.902073667	1.239795387
H 	1.474421510	2.613017537	0.479981340
H 	11.846888534	0.331093694	2.960082324
H 	8.705361573	-0.852196795	3.015841881
H 	4.472459780	-9.146052919	-4.097044767
H 	11.207334030	-2.781788327	1.919478086
C 	-1.333203975	0.412283094	4.212549510
H 	0.301542191	1.328063542	5.087335696
H 	7.669169234	-9.370279693	-3.149026251
H 	-2.756577158	0.111945168	5.674438101
H 	-0.710501509	-1.459103581	3.588747616
N 	8.390401569	-1.568185894	-2.163914842
C 	9.066487479	-3.449212995	-3.801633608
N 	7.043858274	-4.681531990	-4.833710879
C 	10.129679001	0.067155723	-0.775534131
H 	6.526933569	-1.280648487	-1.846393427
C 	7.161386280	-6.955443459	-6.396183000
H 	5.327206217	-4.251672173	-4.113490515
H 	11.945924055	-0.169505246	-1.741061267
C 	6.418256293	-9.262665210	-4.790293640
C 	10.480183523	-0.849926461	1.952203620
H 	10.103901995	2.804461243	-5.080990839
H 	9.160099404	-7.146063056	-6.880758312
C 	9.325617676	2.827560123	-1.081143293
C 	8.486732381	4.330639430	0.927567361
C 	7.784242693	6.848749826	0.544068511
C 	7.910627933	7.913852731	-1.859859454
C 	8.751292883	6.438317129	-3.882138538
C 	9.446881306	3.930647531	-3.493415093
H 	8.384438697	3.557906265	2.824862685
H 	7.146251637	7.977988065	2.139696971
H 	7.374387171	9.875538012	-2.157707112
H 	8.877591324	7.249361578	-5.767095619
C 	5.690869798	-6.629874684	-8.961167999
C 	6.134565920	-8.990276323	-10.618781426
H 	5.341415688	-8.691375882	-12.506263886
H 	5.239790912	-10.682435683	-9.842156194
H 	8.153916218	-9.382184353	-10.848407098
C 	6.753506660	-4.315965905	-10.383980970
H 	8.784474192	-4.505789413	-10.719054897
H 	5.820727621	-4.115952076	-12.220412786
H 	6.455932818	-2.565381366	-9.330350906
C 	2.823793595	-6.270056781	-8.572868128
H 	1.953266088	-7.887698109	-7.624520984
H 	1.881358160	-6.054878848	-10.403007552
H 	2.394060053	-4.573113518	-7.471316449
H 	-0.983820239	3.250217114	-1.694251586
C 	-5.395543386	4.396014552	4.806292428
C 	-3.426282897	4.642671817	2.662912412
C 	-4.798857636	5.794159499	0.357446218
C 	-1.326324325	6.473216399	3.523032974
H 	0.063592761	6.821967610	2.033923693
H 	-6.323669374	6.215766082	5.130019751
H 	-4.543664815	3.821814505	6.596971190
H 	-6.870868031	3.023449219	4.330179214
H 	-5.708656028	7.574963429	0.885385698
H 	-6.276715188	4.530432600	-0.354035259
H 	-3.520179079	6.223988385	-1.207846531
H 	-2.145454667	8.303166390	4.034392082
H 	-0.317208376	5.772438847	5.184924866
H 	-1.879275951	-1.422635025	-2.125893760
S 	12.092269722	-4.129175800	-4.497411389
