69

C 	0.000000000	0.000000000	0.000000000
C 	0.133994780	-1.359664906	0.000000000
C 	1.406540195	-2.069092995	0.000000000
O 	1.435773246	-3.318993237	0.003051580
H 	0.102154626	-5.640677440	4.889243111
H 	0.897526210	0.611376674	0.091095055
H 	-0.747268874	-1.994912043	-0.023728034
H 	-1.630741640	-6.157476241	-3.372898571
H 	-0.144161007	-5.445081128	-2.715584090
H 	1.179859986	-4.972892357	3.648170518
H 	-0.874341735	-6.846758404	-1.913367125
C 	0.366069640	0.312058637	-2.485139920
H 	-0.678120326	0.193598857	-2.740772630
H 	0.152964323	-6.370077199	3.275358475
H 	0.310003097	-2.019188264	2.775691419
H 	0.796516660	1.306328135	-2.450565324
H 	1.023254628	-0.534553057	-2.641272506
N 	-1.211543792	-4.670695006	-0.335325991
C 	-1.705948522	-4.742170999	0.937532256
N 	-0.808674035	-4.320543146	1.883646031
C 	-1.956344312	-5.005428562	-1.555342955
H 	-0.267722746	-4.290241945	-0.445740179
C 	-0.944069109	-4.505395385	3.333919183
H 	0.123630753	-4.096128562	1.539266722
H 	-2.831346805	-5.565162650	-1.211495498
C 	0.193466326	-5.421347880	3.821283633
C 	-1.097303020	-5.916601246	-2.446583796
H 	-4.366203232	-3.823378003	-1.257792089
H 	-1.897764511	-5.025479009	3.472102392
C 	-2.462875240	-3.744301655	-2.257972970
C 	-1.674290095	-3.026363156	-3.170009712
C 	-2.177600802	-1.888549509	-3.809490684
C 	-3.475994550	-1.444349180	-3.537126215
C 	-4.263628102	-2.142485583	-2.614479888
C 	-3.760316715	-3.282313250	-1.981030058
H 	-0.665245726	-3.361225301	-3.399336839
H 	-1.558865151	-1.355335126	-4.528359951
H 	-3.870365962	-0.563713186	-4.040037338
H 	-5.272697792	-1.801771104	-2.391387538
C 	-1.060323002	-3.129767826	4.080310260
C 	-1.228912933	-3.378301844	5.596447123
H 	-1.458298770	-2.435612974	6.108677755
H 	-0.320205411	-3.788528920	6.050322020
H 	-2.054445320	-4.074783131	5.791180923
C 	-2.318138256	-2.398903705	3.560113116
H 	-3.219971245	-2.992399644	3.743527452
H 	-2.430859633	-1.429109541	4.060774646
H 	-2.257092703	-2.227676979	2.481455222
C 	0.184370784	-2.246874589	3.840110940
H 	1.100904786	-2.727427391	4.201805565
H 	0.079506142	-1.292842894	4.371690632
S 	-3.272030848	-5.280122646	1.307797932
C 	2.715765430	-1.293258937	0.023260740
H 	2.814658367	-0.745081088	0.969259212
H 	2.758064255	-0.555090735	-0.786640147
H 	3.547329211	-1.994653539	-0.072782896
C 	-1.288985734	0.976965546	1.837725103
C 	-1.293400803	0.743270203	0.293868517
C 	-2.545923086	-0.063400478	-0.102125986
C 	-1.315638339	2.127542524	-0.396620744
H 	-1.435376745	2.036418921	-1.479800849
H 	-2.192083034	1.529335476	2.124408383
H 	-0.416572649	1.565499151	2.147344655
H 	-1.275522545	0.027586573	2.377398972
H 	-3.446801995	0.527058116	0.100667923
H 	-2.632055135	-0.995689105	0.464346964
H 	-2.538699758	-0.316678547	-1.165917456
H 	-2.154901961	2.719387787	-0.013354407
H 	-0.391534716	2.684967574	-0.197526360
