69

C 	0.750099509	-0.641710214	2.102949882
C 	1.750571154	-1.553165534	1.916003516
C 	3.159833422	-1.219157628	1.757641194
O 	4.010615553	-2.120468430	1.593558580
H 	5.184176501	-5.042406780	6.190150232
H 	1.018361291	0.407024037	2.228747859
H 	1.518655205	-2.612864203	1.852905996
H 	3.203601043	-6.059025063	-1.969310764
H 	3.911057888	-4.575703079	-1.299421365
H 	5.379497486	-3.745266951	4.995610606
H 	4.403284478	-6.151367999	-0.654124391
C 	0.498971739	-0.005783021	-0.334228700
H 	-0.225160659	-0.779550654	-0.550167138
H 	5.501249327	-5.441895401	4.493358284
H 	2.668772794	-2.098818023	4.567339397
H 	0.161592733	1.014232404	-0.190021163
H 	1.525472167	-0.177051804	-0.634203248
N 	2.911084677	-4.876620028	1.213368133
C 	2.754694847	-5.343843804	2.488890432
N 	3.256720797	-4.489979492	3.435932411
C 	2.429289013	-5.546237514	-0.001004594
H 	3.341147477	-3.953899494	1.106752953
C 	3.462809993	-4.810446890	4.853896543
H 	3.752172213	-3.674937465	3.077623019
H 	2.198401354	-6.569698972	0.309447041
C 	4.971048812	-4.750769915	5.157432820
C 	3.554561092	-5.581971952	-1.047419251
H 	-0.094809776	-6.316782754	0.572044618
H 	3.121565265	-5.844462966	4.969996865
C 	1.130465016	-4.913028051	-0.503802365
C 	1.120837437	-3.794699891	-1.351365148
C 	-0.085854045	-3.254222531	-1.808155437
C 	-1.303866432	-3.818515026	-1.414020351
C 	-1.305326232	-4.922295926	-0.553379376
C 	-0.098061407	-5.463869193	-0.102826172
H 	2.058318882	-3.347403981	-1.673776432
H 	-0.073867974	-2.398723221	-2.480391757
H 	-2.242378095	-3.402935404	-1.775209497
H 	-2.247495576	-5.364897074	-0.236363064
C 	2.559229150	-3.923226454	5.780906440
C 	2.791386073	-4.317183699	7.257308676
H 	2.061818569	-3.810024471	7.900877758
H 	3.791215716	-4.036831161	7.606280275
H 	2.668817946	-5.398507325	7.399531840
C 	1.080836259	-4.198116918	5.426426062
H 	0.832254140	-5.254208152	5.574949541
H 	0.417901763	-3.591711376	6.056234739
H 	0.875924391	-3.961604255	4.378274886
C 	2.861674074	-2.419487508	5.597180955
H 	3.902254925	-2.179754645	5.845189465
H 	2.218898150	-1.821390886	6.255109203
S 	2.002854946	-6.818169041	2.863329153
C 	3.614196295	0.232231347	1.817262367
H 	3.443278974	0.641885326	2.821335453
H 	3.053492300	0.856525520	1.111225013
H 	4.680648758	0.281470388	1.587193355
C 	-0.616304364	-0.907720309	4.116741963
C 	-0.659828071	-0.983699822	2.557749029
C 	-1.099045018	-2.395696338	2.122208430
C 	-1.681485832	0.065462018	2.058795484
H 	-1.846375336	-0.012705007	0.980546299
H 	-1.612602463	-1.127142951	4.519393644
H 	-0.323788080	0.093245427	4.457098366
H 	0.091423274	-1.632719443	4.524476463
H 	-2.129572221	-2.580178140	2.446753772
H 	-0.472738351	-3.176870802	2.563772505
H 	-1.060288514	-2.509099972	1.035243942
H 	-2.644653208	-0.088111558	2.559056503
H 	-1.344182754	1.085405283	2.283007740
