28

H 	2.113106349	-0.372904514	-0.042017354
C 	0.000000000	0.000000000	0.000000000
C 	1.116923833	-0.803159621	-0.000000000
C 	1.115175975	-2.247611161	-0.000000000
O 	2.197294810	-2.924890248	0.085647855
H 	-0.976589113	-0.442514000	0.196304892
H 	0.232671313	0.494080306	-2.664541975
H 	-1.572999578	0.467411578	-2.221339176
H 	-0.653635682	-1.131729045	-2.506166172
C 	-0.632580079	-0.062345539	-2.325005575
N 	-0.034102675	-2.954668081	-0.110414892
H 	0.016031643	-3.965598647	-0.064615557
H 	-0.935485627	-2.509283441	-0.199578145
C 	-1.156984808	2.146295385	0.453373169
C 	-1.178621329	3.532299381	0.601302405
C 	0.009461000	4.233523053	0.410612210
C 	1.207241332	3.597880077	0.082642717
C 	1.212986287	2.212504316	-0.056332930
C 	0.032012091	1.461736024	0.128835417
H 	-2.076492332	1.582040324	0.597517519
H 	-2.088861922	4.066256193	0.858721525
F 	0.000895723	5.591682844	0.545935072
H 	2.110164019	4.185334767	-0.057895223
H 	2.144743043	1.716014346	-0.312516711
Al	3.969429966	-2.447897951	0.425171059
F 	4.036979272	-2.347075215	2.102269108
F 	4.146019330	-0.932364135	-0.320689540
F 	4.856607258	-3.679128388	-0.286072289
