28

H 	1.544975553	2.158554545	-0.492163967
C 	3.445647468	1.184607680	-0.280231304
C 	2.073465029	1.253017415	-0.209381542
C 	1.202371754	0.207888949	0.275743496
O 	-0.071821847	0.315032971	0.231307983
H 	3.940925155	0.223885534	-0.139541867
H 	3.736247374	2.673558418	1.977336551
H 	5.124761661	1.439357056	1.897572010
H 	3.447605093	0.924141942	2.534208762
C 	4.064783892	1.641613735	2.003955860
N 	1.695377868	-0.929672239	0.819675356
H 	1.041894973	-1.648417842	1.107697063
H 	2.686195811	-1.098111502	0.913039202
C 	5.630822291	1.894223537	-1.214148476
C 	6.475359799	2.828186525	-1.812335579
C 	5.968008783	4.096699671	-2.082680462
C 	4.654574591	4.455848401	-1.779058132
C 	3.822442960	3.509757107	-1.186536869
C 	4.294589359	2.211626328	-0.895719651
H 	6.010695635	0.898177459	-0.994503525
H 	7.503695696	2.588992375	-2.067725196
F 	6.786183819	5.022845621	-2.662186241
H 	4.301646451	5.457678959	-2.006875082
H 	2.799567804	3.788073463	-0.948693445
Al	-1.213676970	1.562499701	-0.558156585
F 	-1.317800242	1.047342344	-2.155390832
F 	-0.388974544	3.039572246	-0.408299357
F 	-2.614726937	1.454017201	0.355172258
