31

H 	1.913222511	0.910505964	0.179466116
C 	0.000000000	0.000000000	0.000000000
C 	1.347956567	0.000000000	0.000000000
C 	2.194831522	-1.203111110	0.000000000
O 	3.179296236	-1.259639724	0.801023644
H 	-0.528200628	-0.947554228	-0.105311347
C 	-2.262186099	0.992874030	0.080458924
C 	-3.130560334	2.075533010	0.235617315
C 	-2.627256695	3.352599760	0.498422518
C 	-1.243348315	3.506145177	0.601129599
C 	-0.355765428	2.452701949	0.451920029
C 	-0.865513952	1.164584614	0.179401897
H 	-2.662912784	0.001557138	-0.119359610
H 	-4.204626860	1.927244162	0.155757291
H 	-3.277744667	4.212767780	0.629136059
F 	-0.744283410	4.751945069	0.865015950
H 	0.708134484	2.638651773	0.562357749
N 	1.959867603	-2.260021017	-0.812697131
C 	2.762872089	-3.485585114	-0.658983657
C 	1.060142340	-2.235990457	-1.973243039
H 	3.250763349	-3.481400305	0.314784765
H 	3.527764838	-3.538810239	-1.444610038
H 	2.100209446	-4.353464100	-0.748097316
H 	0.169502293	-2.851073542	-1.791171483
H 	1.593913656	-2.647572542	-2.837964360
H 	0.755222239	-1.214391027	-2.196172340
Ti	3.937962204	-0.282024607	2.525669333
Cl	4.719173339	0.783269334	4.345438571
Cl	4.403503026	1.435556929	1.115846154
Cl	1.849279890	-0.534255214	3.348447275
Cl	5.349977217	-2.021278152	2.642510618
