30

H 	0.837077510	-1.563643160	1.005536280
C 	-0.796298190	-0.078369890	0.906614910
C 	0.303646470	-0.965686290	0.258109100
C 	1.309312940	-0.143486710	-0.517777540
O 	2.516907180	-0.172277800	-0.360900140
H 	-1.161406600	0.608063570	0.124752140
H 	-0.154259190	-1.651361330	-0.470770220
H 	0.205817920	0.157389650	2.844500220
C 	-0.159197060	0.781224460	2.019309730
H 	0.702163100	1.337581220	1.630390650
H 	-0.864634330	1.511043760	2.426983370
H 	0.856642630	0.531412320	-1.289720080
C 	-2.730709180	-1.565425040	0.143041100
C 	-2.058526890	-0.898169120	1.368687580
C 	-3.093728490	0.063982460	2.004153870
C 	-1.686955560	-1.990317300	2.398517140
H 	-1.215239960	-1.561703080	3.290331950
H 	-3.665863370	-2.053418230	0.444693860
H 	-2.097217640	-2.334883280	-0.312829190
H 	-2.973359300	-0.821489640	-0.627320660
H 	-4.028657410	-0.471828920	2.209574030
H 	-3.325677210	0.897665310	1.328056030
H 	-2.738332760	0.481667990	2.951925960
H 	-2.589452130	-2.522403480	2.724797070
H 	-1.001609770	-2.732859960	1.973375670
Ti	6.443211340	-2.188154580	-3.463233070
Cl	5.042071680	-1.772838040	-1.834283150
Cl	5.330671740	-2.365394070	-5.356194900
Cl	7.496078150	-4.079206650	-3.063475530
Cl	7.905565450	-0.550789460	-3.612055090
