30

H 	0.837077509	-1.563643158	1.005536281
C 	-0.796298191	-0.078369887	0.906614913
C 	0.303646468	-0.965686293	0.258109104
C 	1.309312943	-0.143486712	-0.517777541
O 	2.516907180	-0.172277802	-0.360900143
H 	-1.161406596	0.608063566	0.124752143
H 	-0.154259193	-1.651361334	-0.470770219
H 	0.205817920	0.157389651	2.844500217
C 	-0.159197058	0.781224462	2.019309732
H 	0.702163097	1.337581216	1.630390654
H 	-0.864634329	1.511043759	2.426983367
H 	0.856642630	0.531412322	-1.289720083
C 	-2.730709179	-1.565425038	0.143041105
C 	-2.058526886	-0.898169122	1.368687580
C 	-3.093728490	0.063982455	2.004153869
C 	-1.686955559	-1.990317296	2.398517140
H 	-1.215239956	-1.561703084	3.290331949
H 	-3.665863367	-2.053418231	0.444693862
H 	-2.097217638	-2.334883277	-0.312829191
H 	-2.973359296	-0.821489641	-0.627320659
H 	-4.028657413	-0.471828915	2.209574034
H 	-3.325677211	0.897665313	1.328056034
H 	-2.738332763	0.481667987	2.951925965
H 	-2.589452130	-2.522403481	2.724797069
H 	-1.001609767	-2.732859957	1.973375666
Ti	6.443211340	-2.188154579	-3.463233066
Cl	5.042071681	-1.772838042	-1.834283153
Cl	5.330671745	-2.365394073	-5.356194904
Cl	7.496078148	-4.079206656	-3.063475527
Cl	7.905565452	-0.550789461	-3.612055088
