30

H 	1.787440572	-1.127291397	-0.014408285
C 	0.000000000	0.000000000	0.000000000
C 	0.697938259	-1.152514659	-0.000000000
C 	0.103356629	-2.490139114	0.000000000
O 	0.827520049	-3.508521929	0.074820771
H 	-1.090394839	-0.019037723	0.008050395
C 	0.619243614	1.366708460	0.049352328
C 	0.192621694	2.092568387	1.322259417
C 	0.710052445	1.688969728	2.563357387
C 	0.311185442	2.327685626	3.740378426
C 	-0.617950216	3.373858261	3.691332978
C 	-1.142306180	3.778365847	2.459541397
C 	-0.739512204	3.138661855	1.281881850
H 	1.711516013	1.286719262	-0.004662318
H 	0.283800342	1.946290973	-0.822415010
H 	1.429196434	0.872719045	2.606490852
H 	0.724903397	2.009653547	4.694868844
H 	-0.928657013	3.871445937	4.607217494
H 	-1.861294430	4.593530880	2.413222400
H 	-1.145588515	3.461177878	0.324357434
C 	-1.855806393	-4.142698375	-0.038198219
C 	-1.403023387	-2.679210503	-0.088982976
H 	-1.529850914	-4.623325105	0.889488268
H 	-1.436647628	-4.714604263	-0.872004833
H 	-2.948260218	-4.196634566	-0.094314950
H 	-1.858958199	-2.102676865	0.729010728
H 	-1.744739039	-2.194159030	-1.015223320
Zn	2.906065987	-3.715673173	0.388395384
Cl	3.064706779	-4.937900000	2.142690954
Cl	3.917784814	-2.560685351	-1.128165696
