30

H 	2.755573465	0.665075292	0.051420248
C 	4.379760873	-0.399115357	0.885357188
C 	3.151164583	-0.308724612	0.339657157
C 	2.255141536	-1.442158999	0.104634427
O 	1.158563147	-1.276809048	-0.476131961
H 	4.778356821	-1.370098533	1.181500887
C 	5.310343245	0.763204576	1.077240337
C 	6.582283546	0.560259337	0.258611942
C 	6.539518967	0.679120029	-1.139599043
C 	7.690106940	0.472812087	-1.905115705
C 	8.897474409	0.136223450	-1.281298750
C 	8.947290693	0.010520342	0.110679385
C 	7.794141322	0.219919318	0.875365458
H 	4.809933677	1.696424662	0.792520500
H 	5.577805441	0.839264927	2.140769916
H 	5.601608208	0.936027311	-1.629104719
H 	7.644869544	0.574656045	-2.987215652
H 	9.793400814	-0.024342829	-1.876707017
H 	9.882974500	-0.246350137	0.602712875
H 	7.839052377	0.127229907	1.959413073
C 	1.595046194	-3.917355795	0.196318244
C 	2.629911416	-2.845327336	0.555758432
H 	1.436143178	-3.963625988	-0.885559820
H 	0.628396709	-3.705176043	0.663835529
H 	1.939831002	-4.898113246	0.540922104
H 	3.608061746	-3.085866237	0.114460054
H 	2.799037546	-2.811115215	1.642124657
Zn	0.324838869	0.422552478	-1.413504951
Cl	-0.065402032	-0.211228729	-3.424124678
Cl	0.311188044	2.028122143	0.028538415
