30

H 	2.115736267	0.036221220	-0.054935457
C 	0.000000000	0.000000000	0.000000000
C 	1.243070463	-0.607523508	0.000000000
C 	1.465066190	-2.012340589	0.000000000
O 	2.635955218	-2.483902286	-0.131183069
H 	-0.926507431	-0.551109192	0.153769927
H 	0.511097610	0.214513872	-2.656041011
H 	-1.342684880	0.259136551	-2.429858439
H 	-0.434135090	-1.362888953	-2.417427969
C 	-0.404072164	-0.281258857	-2.355187629
C 	0.417698493	-4.121514282	-0.945091175
C 	0.354546520	-3.037965156	0.151433006
H 	1.392139697	-4.617025950	-0.934442624
H 	0.272596505	-3.684125069	-1.939852637
H 	-0.363211422	-4.871645375	-0.781560308
H 	0.493818356	-3.506347580	1.136637355
H 	-0.629638908	-2.559073825	0.165273114
O 	-0.066371035	1.334857963	0.137048928
C 	-1.404155957	1.928505629	0.181512448
C 	-1.256177608	3.383014848	0.590961360
H 	-2.011745884	1.361523341	0.899694312
H 	-1.850510134	1.831904559	-0.816781308
H 	-0.802626236	3.464467107	1.584362487
H 	-2.244651792	3.856282595	0.618545846
H 	-0.631673418	3.925755892	-0.126464234
Ti	4.570622738	-1.886055036	-0.730945974
Cl	6.580677342	-1.129268216	-1.411715557
Cl	3.483428542	-1.075455729	-2.559045639
Cl	4.600548223	-0.743399555	1.220872984
Cl	5.102834838	-4.057642114	-0.682580915
