21

H 	-0.299689640	0.282163460	-0.132235960
C 	-0.057502320	-1.847176370	-0.075443530
C 	0.381166870	-0.561287550	-0.023938090
C 	1.745438220	-0.144378630	0.164946270
O 	2.158352320	1.008936290	0.207874170
H 	0.679816270	-2.642266690	0.035426640
C 	-4.058549630	-3.214113600	-0.640085360
C 	-3.803090780	-1.833806310	-0.600063580
C 	-2.506527320	-1.364066130	-0.416106010
C 	-1.430714740	-2.273920190	-0.267871730
C 	-1.705571480	-3.661320520	-0.309596670
C 	-3.006871970	-4.126874190	-0.495364030
H 	-4.621878840	-1.126664440	-0.712852550
H 	-2.324745500	-0.292712290	-0.387034790
H 	-0.884973930	-4.367604480	-0.196057400
H 	-3.202493820	-5.196371810	-0.526650360
H 	-5.075499980	-3.573424200	-0.784422440
Br	3.128592510	-1.570714470	0.385569210
Zn	1.245369510	2.999095820	0.131723440
Cl	-0.856933520	2.716507720	-0.262168650
Cl	2.906138130	4.281605860	0.494655320
