28

H 	1.913169232	0.930826954	-0.001189104
C 	0.000000000	0.000000000	0.000000000
C 	1.357536453	0.000000000	0.000000000
C 	2.162291350	-1.206756589	0.000000000
O 	3.424821986	-1.158284429	-0.002112041
H 	-0.529666138	-0.952273902	0.002226603
C 	-2.263509633	0.980643066	-0.000082854
C 	-3.134749010	2.070461055	-0.001702274
C 	-2.631657111	3.374729119	-0.006358342
C 	-1.245601564	3.550475034	-0.010380807
C 	-0.354110229	2.490896953	-0.008596809
C 	-0.863553902	1.171778982	-0.003244283
H 	-2.660916296	-0.031662674	0.003517979
H 	-4.209691313	1.909034243	0.001149825
H 	-3.284860505	4.242871906	-0.007667939
F 	-0.752825446	4.824051702	-0.017330473
H 	0.712119332	2.695038465	-0.011631028
C 	2.541364939	-3.743098230	0.053552584
C 	1.533595672	-2.588640872	-0.005305727
H 	3.147309690	-3.691053240	0.963434757
H 	3.224601593	-3.714897691	-0.800495172
H 	2.008290311	-4.699803415	0.043607853
H 	0.832362956	-2.643655559	0.839348226
H 	0.912721607	-2.664348265	-0.910446136
B 	4.383878633	0.236639944	-0.007198949
F 	4.021851307	0.907231637	1.149499782
F 	4.021466379	0.897759024	-1.168872773
F 	5.646132533	-0.283873930	-0.005021138
