28

H 	2.397759510	0.714061060	0.621363000
C 	4.222497780	-0.150016630	-0.060704120
C 	2.901164650	-0.173762330	0.253918540
C 	2.074845570	-1.362723250	0.136512140
O 	0.856248370	-1.362026040	0.473446800
H 	4.695340390	-1.066593880	-0.413924470
C 	6.484009740	0.796017950	-0.311072000
C 	7.395785570	1.850480190	-0.245545250
C 	6.974469330	3.123518460	0.151972650
C 	5.627354520	3.306049160	0.478826980
C 	4.697283060	2.279392630	0.426040490
C 	5.124332700	0.991132100	0.024625770
H 	6.817809760	-0.191827160	-0.622053870
H 	8.439025050	1.685363290	-0.504670910
H 	7.662958780	3.962385770	0.209623310
F 	5.214495860	4.552462110	0.865655130
H 	3.664057400	2.483825910	0.690312020
C 	1.593224010	-3.795395700	-0.528315680
C 	2.630192720	-2.671276130	-0.401998710
H 	0.785242730	-3.510924750	-1.210115030
H 	1.141739880	-4.028004450	0.441089260
H 	2.075000290	-4.699624620	-0.916359960
H 	3.098009820	-2.465354460	-1.375462210
H 	3.452268680	-2.979066990	0.262146060
B 	-0.021074730	-0.071227850	1.127159180
F 	0.046044070	0.918643560	0.157400970
F 	0.657737010	0.243232930	2.294287550
F 	-1.258984010	-0.626117230	1.303631630
