28

H 	2.426128768	0.694010166	0.631152924
C 	4.237261928	-0.168028834	-0.078313201
C 	2.920778698	-0.192999536	0.252070805
C 	2.083453071	-1.371410296	0.133218858
O 	0.861894163	-1.348452824	0.455095243
H 	4.705470651	-1.075921974	-0.457638127
C 	6.478585081	0.819163900	-0.373368643
C 	7.375257928	1.885612085	-0.299680116
C 	6.950000658	3.132760056	0.167242268
C 	5.615111711	3.275663298	0.554156921
C 	4.700185965	2.238044762	0.493129515
C 	5.130735867	0.976878816	0.020138006
H 	6.815373968	-0.148684073	-0.737444844
H 	8.409397509	1.750483880	-0.606051458
H 	7.624703360	3.981530550	0.235895014
F 	5.198960177	4.492800648	1.012707579
H 	3.676553562	2.414472482	0.808689975
C 	1.583412196	-3.809877602	-0.485998313
C 	2.629241078	-2.693722544	-0.375206503
H 	0.780360904	-3.530288020	-1.174984219
H 	1.126681936	-4.021042972	0.485501466
H 	2.057631977	-4.725198697	-0.855937713
H 	3.104408191	-2.510565036	-1.349302894
H 	3.444518866	-2.994600238	0.299545390
B 	-0.001160767	-0.022391015	1.057030292
F 	0.104552553	0.936686079	0.063196916
F 	0.659648894	0.314636365	2.226496107
F 	-1.250310384	-0.546935778	1.226448020
