69

C 	0.000000000	0.000000000	0.000000000
C 	0.672485554	-1.163057932	0.000000000
C 	2.134160626	-1.295470473	0.000000000
O 	2.652717220	-2.424057811	0.056994306
H 	0.184493130	-6.874180859	3.578896553
H 	0.558079393	0.938450009	0.036319527
H 	0.140117463	-2.108093068	-0.010196741
H 	0.561954087	-5.683446279	-4.317165567
H 	2.042403841	-5.433954453	-3.367295954
H 	1.701433730	-6.218525970	2.923295000
H 	0.834412206	-6.624290506	-2.825039438
C 	1.884209245	2.730792454	-2.624224727
H 	1.416752886	1.758839248	-2.727400923
H 	0.516402060	-6.980937350	1.843894366
H 	1.833842261	-2.848563706	2.942180987
H 	1.283638577	3.590442315	-2.349959051
H 	2.929106628	2.859592619	-2.882472208
N 	0.739671726	-4.537738458	-1.084798648
C 	-0.091710112	-4.845424978	-0.018173234
N 	0.404261291	-4.408922889	1.203396524
C 	0.248313228	-4.563507203	-2.468701758
H 	1.566246839	-3.987092929	-0.860543029
C 	-0.065905688	-4.994121793	2.466488494
H 	1.342185667	-4.016081001	1.193501277
H 	-0.810044731	-4.831554789	-2.390378256
C 	0.629590835	-6.346555890	2.728956989
C 	0.968365011	-5.646296656	-3.299216857
H 	-1.702442055	-3.119929582	-3.734865716
H 	-1.133234133	-5.190139981	2.313687436
C 	0.358816219	-3.185213979	-3.110744274
C 	1.573872312	-2.483199894	-3.097272487
C 	1.663441611	-1.194990875	-3.627935438
C 	0.542713007	-0.599489562	-4.212897942
C 	-0.662909313	-1.305840665	-4.273028655
C 	-0.753758204	-2.586123483	-3.715902017
H 	2.451755124	-2.929193062	-2.636419926
H 	2.604671415	-0.652819644	-3.562855622
H 	0.602712235	0.409198860	-4.615575995
H 	-1.539208573	-0.850540738	-4.730009909
C 	0.051739562	-3.949628793	3.627858848
C 	-0.421829018	-4.597045951	4.949589635
H 	-0.503570565	-3.834018853	5.733411657
H 	0.275818937	-5.363759238	5.303098708
H 	-1.408412850	-5.062688631	4.828949314
C 	-0.865151053	-2.745727995	3.313317720
H 	-1.916179079	-3.056764174	3.264123540
H 	-0.773701510	-1.980231094	4.094447107
H 	-0.598141723	-2.290916107	2.356145915
C 	1.503344257	-3.443215816	3.802065813
H 	2.210640354	-4.269016140	3.939603468
H 	1.571146134	-2.799998961	4.688220199
O 	-1.176738143	-5.427595496	-0.142125225
C 	3.023645316	-0.065438336	-0.061066022
H 	2.875055585	0.550087112	0.836902091
H 	2.826837592	0.585727174	-0.922744630
H 	4.066147274	-0.392206012	-0.089512453
C 	-2.254514401	-1.160642805	-0.203453494
C 	-1.494109748	0.177158387	-0.108754917
C 	-1.746001194	1.006789159	-1.400011152
C 	-1.981508531	0.980685864	1.126585160
H 	-1.454614658	1.939497840	1.210116579
H 	-3.328612146	-0.968418242	-0.308410639
H 	-2.109161655	-1.775159175	0.690334598
H 	-1.929358423	-1.741056421	-1.073383959
H 	-2.809595735	1.265943679	-1.468297657
H 	-1.453622339	0.430831290	-2.282096736
H 	-1.167772137	1.938800337	-1.384522607
H 	-3.054944002	1.188360937	1.039737118
H 	-1.813750551	0.414145959	2.049691631
