69

C 	0.536117050	-1.044644480	2.326395430
C 	1.526047460	-1.847521850	1.895440430
C 	2.874679260	-1.378782240	1.526983040
O 	3.765316170	-2.195978960	1.236637090
H 	5.432947120	-4.943991680	6.114622260
H 	0.724951530	0.028272830	2.401292820
H 	1.380071450	-2.920670950	1.814777020
H 	2.426614650	-6.992673710	-1.552661590
H 	3.705676620	-5.788226610	-1.284720810
H 	5.535842090	-3.653521390	4.902579300
H 	3.626991440	-7.235058370	-0.252404840
C 	0.310729500	1.159444710	-0.591291540
H 	0.173887150	0.098139360	-0.761413960
H 	5.673593070	-5.350902070	4.406072310
H 	2.729450660	-2.104139830	4.504694510
H 	-0.253869580	1.658227270	0.187814920
H 	0.961961430	1.734759120	-1.239863470
N 	2.908120680	-5.090235420	1.263462520
C 	2.765560650	-5.417474280	2.605011760
N 	3.340623240	-4.478739920	3.453106180
C 	2.113542810	-5.748207190	0.215829970
H 	3.283073410	-4.163635670	1.056166490
C 	3.638163830	-4.758178570	4.864123070
H 	3.867617210	-3.731845420	3.009516190
H 	1.492062870	-6.483161310	0.738031690
C 	5.159841430	-4.667595200	5.091533450
C 	3.026025270	-6.489083830	-0.784000320
H 	-0.614694030	-5.789284160	-0.005738160
H 	3.317257790	-5.793320400	5.029778080
C 	1.204827800	-4.738830960	-0.483028450
C 	1.740796330	-3.603654930	-1.116033290
C 	0.906855890	-2.663771300	-1.726551030
C 	-0.482069500	-2.848306160	-1.727207290
C 	-1.025153170	-3.981844440	-1.114786220
C 	-0.185489950	-4.917169520	-0.496392190
H 	2.816170610	-3.439576460	-1.120014200
H 	1.341481860	-1.789508700	-2.208011970
H 	-1.132498450	-2.118678960	-2.206059120
H 	-2.102556550	-4.136838610	-1.111529650
C 	2.774580460	-3.856408310	5.819809700
C 	3.121411320	-4.164818110	7.294040090
H 	2.420688680	-3.648616320	7.962618670
H 	4.132815090	-3.834946090	7.557001240
H 	3.047550420	-5.241097960	7.498933330
C 	1.286366620	-4.193886230	5.581931690
H 	1.081578430	-5.247958250	5.801926700
H 	0.644299510	-3.575189700	6.221965460
H 	1.012298650	-4.015716770	4.538909870
C 	3.006872300	-2.354677410	5.534257190
H 	4.053028620	-2.065636790	5.694206830
H 	2.389546920	-1.742013450	6.203715440
O 	2.181860570	-6.432318260	3.007646180
C 	3.180421990	0.110744230	1.500319750
H 	3.039029330	0.554071350	2.494478000
H 	2.497733220	0.627559570	0.811249090
H 	4.214917910	0.257829350	1.180934320
C 	-1.137348970	-2.952132450	2.554949160
C 	-0.853341670	-1.451249620	2.759838490
C 	-1.873127900	-0.615530620	1.936012580
C 	-0.996487190	-1.085725270	4.265707920
H 	-0.799014220	-0.019760880	4.436264960
H 	-2.150893310	-3.186653320	2.901946860
H 	-0.440350230	-3.578605410	3.120039180
H 	-1.066948390	-3.227788170	1.498881180
H 	-2.894556690	-0.860117830	2.252368730
H 	-1.781160760	-0.832103390	0.865686310
H 	-1.718321920	0.460302460	2.085477880
H 	-2.017306090	-1.302161080	4.604736210
H 	-0.297968590	-1.668614020	4.874750010
