26

H 	1.613161300	2.083866270	0.851754350
C 	3.650932550	1.315323250	0.593388540
C 	2.167437200	1.184599470	0.581139000
C 	1.412818870	0.122141390	0.022692630
O 	0.168894300	0.263272350	-0.247222750
H 	4.155804190	0.349211090	0.486258560
H 	5.288553690	2.212419780	1.697307190
H 	4.008719780	1.507518140	2.724273920
C 	4.207542220	2.068804620	1.803258390
H 	3.734177630	3.054247290	1.897182650
C 	1.044039500	-2.347783700	-0.576249310
C 	2.049137780	-1.238039060	-0.242909240
H 	0.463140860	-2.098459310	-1.469704030
H 	0.336000740	-2.496275210	0.246526800
H 	1.572854000	-3.290890010	-0.754378290
H 	2.759984490	-1.112063550	-1.074818170
H 	2.662757070	-1.514753500	0.626399060
C 	3.940321460	1.378060530	-1.951773340
H 	4.331961490	2.063829220	-2.710900070
H 	2.944864070	1.049825850	-2.284709170
H 	4.611471050	0.515059290	-1.881670600
N 	3.927985940	2.084730790	-0.665503920
H 	3.345661380	2.925628070	-0.716035350
Zn	-0.760181420	2.030923440	-0.712134100
Cl	0.674452890	3.213876570	-1.869022020
Cl	-2.757636880	2.100383880	0.074312600
