26

H 	1.609038496	2.079350759	0.847823992
C 	3.647980261	1.317462830	0.590487743
C 	2.165720053	1.183119944	0.574776210
C 	1.412536190	0.121757067	0.014291599
O 	0.166286063	0.260085468	-0.242319861
H 	4.154620323	0.351840456	0.488939653
H 	5.277139453	2.218003826	1.703793942
H 	3.989082968	1.516939575	2.722292374
C 	4.195744491	2.074200683	1.801132962
H 	3.721676813	3.059785956	1.887275252
C 	1.040155089	-2.348779298	-0.567104395
C 	2.048998493	-1.233556970	-0.267404448
H 	0.430956353	-2.104610144	-1.442403866
H 	0.358342676	-2.498261150	0.276872531
H 	1.567462120	-3.289545361	-0.758917045
H 	2.732599722	-1.105251350	-1.120932363
H 	2.689982995	-1.504586639	0.582988578
C 	3.962152384	1.370936071	-1.948390268
H 	4.363034226	2.052960001	-2.705679032
H 	2.973136441	1.037424941	-2.293619626
H 	4.633600928	0.509872776	-1.864111257
N 	3.929515253	2.083246777	-0.667150843
H 	3.339587311	2.917730841	-0.726849682
Zn	-0.762962219	2.032007247	-0.683341465
Cl	0.679175498	3.218559735	-1.826830405
Cl	-2.770706230	2.104762908	0.071843051
