23

H 	0.948007970	-1.348881810	1.187956250
C 	-0.818625300	-0.052554270	0.906260850
C 	0.454576300	-0.775213690	0.399406180
C 	1.494373680	0.134263490	-0.227476820
O 	2.682147570	0.113837770	0.021553560
H 	-1.195513520	0.561972330	0.077079300
H 	0.161244420	-1.480865370	-0.393629230
H 	-0.113849730	0.348903390	2.939817970
C 	-0.497549070	0.902269520	2.076512290
H 	0.254411540	1.645103160	1.789967870
H 	-1.396768650	1.437558850	2.394755470
H 	1.092036340	0.844214960	-0.995358300
C 	-4.105494950	-2.650923690	2.093604970
C 	-2.789441110	-3.037318570	2.340924880
C 	-1.727807020	-2.222568790	1.946282420
C 	-1.951938010	-1.005252190	1.288637180
C 	-3.282574340	-0.635709770	1.041408040
C 	-4.347627950	-1.443718100	1.439368370
H 	-2.583686240	-3.978625760	2.846414950
H 	-0.715385890	-2.551746560	2.161160760
H 	-3.493885860	0.303561730	0.532803340
H 	-5.369427960	-1.128623500	1.237507810
H 	-4.932684820	-3.284211180	2.406489820
