23

H 	0.891065683	-1.413809157	0.920438032
C 	-0.804550896	-0.002638538	1.047604287
C 	0.327612830	-0.733059012	0.276078248
C 	1.296756271	0.206804283	-0.406168135
O 	2.503577053	0.160903237	-0.309092813
H 	-1.218583920	0.751598490	0.365583939
H 	-0.129172886	-1.330720937	-0.526851567
H 	0.184969119	0.065562355	3.007138635
C 	-0.265677706	0.747859292	2.280300528
H 	0.499723662	1.476780788	1.994705219
H 	-1.073613415	1.287500099	2.783465381
H 	0.814107060	0.982257408	-1.054605651
C 	-4.102918234	-2.674511754	1.986757394
C 	-2.847570913	-2.885030153	2.560211449
C 	-1.785238727	-2.032350957	2.263585557
C 	-1.950118114	-0.947530359	1.388585171
C 	-3.216656121	-0.749062504	0.823837260
C 	-4.283833470	-1.600149560	1.117405146
H 	-2.693180015	-3.719538239	3.240816151
H 	-0.819065371	-2.220163373	2.724716264
H 	-3.375446526	0.086047586	0.143898987
H 	-5.256764469	-1.420815490	0.664925444
H 	-4.930883495	-3.340461553	2.218113004
