33

H 	2.215390448	0.052820816	0.108391836
C 	0.000000000	0.000000000	0.000000000
C 	1.362569811	-0.616108583	0.000000000
C 	1.650597885	-2.005317949	0.000000000
O 	2.855040301	-2.421460193	0.168174264
H 	-0.710595607	-0.635876919	-0.542397881
H 	-1.020980144	1.843859667	-0.546093041
H 	0.281829818	1.376250763	-1.667447107
C 	-0.016517539	1.412122825	-0.613353671
H 	0.677974968	2.076910077	-0.088140719
C 	1.097067608	-4.482898276	-0.344354764
C 	0.571940704	-3.050175624	-0.195090715
H 	1.665470087	-4.788054420	0.539281810
H 	1.761636325	-4.571241203	-1.210061973
H 	0.258890802	-5.175238415	-0.477514277
H 	-0.105363280	-2.976451899	0.669844930
H 	-0.036753687	-2.761601243	-1.064406212
O 	-1.395273617	-0.148467164	5.544975658
H 	-2.175923523	-0.709566856	5.703059072
C 	-1.096328521	-0.140278426	4.205222818
C 	0.017075688	0.610459263	3.797332211
C 	0.360545268	0.654121677	2.452265239
C 	-0.400081963	-0.033964536	1.481772254
C 	-1.496775720	-0.799903640	1.910797581
C 	-1.855625451	-0.847517978	3.256630048
H 	0.603801742	1.138228757	4.544058028
H 	1.237669019	1.221541270	2.154266672
H 	-2.090687758	-1.346570434	1.181203269
H 	-2.723655159	-1.424823012	3.573050127
Al	4.371622401	-1.466527560	0.727456896
F 	4.520621659	-0.232677527	-0.417528928
F 	5.598280180	-2.605482023	0.747999955
F 	3.878659007	-0.864009716	2.225893739
