33

H 	1.493090632	2.136904845	0.782439627
C 	3.579832433	1.413567336	0.570814562
C 	2.094005269	1.288519710	0.457381735
C 	1.390486527	0.218168191	-0.152759099
O 	0.121252181	0.295206759	-0.340502854
H 	4.044358783	0.423689712	0.659350412
H 	5.106363067	2.390176153	1.777618596
H 	3.693786440	1.830899860	2.707803592
C 	4.016212015	2.284189900	1.763356234
H 	3.575483951	3.285197449	1.701281776
C 	1.141225603	-2.158896318	-1.075154655
C 	2.087514055	-1.047661777	-0.605656859
H 	0.529753387	-1.825108415	-1.918779340
H 	0.459396961	-2.461203331	-0.273515586
H 	1.720326942	-3.034483623	-1.387556949
H 	2.776906311	-0.761454669	-1.415047588
H 	2.732534864	-1.399705762	0.212577006
O 	5.006076562	3.567803128	-4.532192576
H 	5.578749431	2.957692756	-5.031240293
C 	4.689199137	3.013542195	-3.316973907
C 	3.852303243	3.754722746	-2.468500330
C 	3.503934465	3.239922144	-1.226444593
C 	3.988611667	1.986264763	-0.793658000
C 	4.805476366	1.247397072	-1.665592194
C 	5.167263077	1.754934769	-2.912115818
H 	3.477459429	4.718361850	-2.802085909
H 	2.837829501	3.815157330	-0.589637814
H 	5.181756208	0.274310497	-1.356723368
H 	5.822149963	1.182956089	-3.568501299
Al	-1.010301125	1.785996842	-0.192696546
F 	-0.800387247	2.299443611	1.403513904
F 	-2.528122164	1.198831113	-0.584849953
F 	-0.315909334	2.868186057	-1.287246762
