27

H 	2.622087330	0.437778200	0.997444610
C 	4.229702530	-0.230752570	-0.211041730
C 	3.009078200	-0.331442170	0.337380180
C 	2.040840290	-1.400324210	0.037337270
O 	0.796095020	-1.224864370	0.133182760
H 	4.560444890	-0.987479260	-0.928789930
C 	5.484339350	1.556399520	-1.374932250
C 	5.225157860	0.886841400	0.005041670
C 	6.547051430	0.253600810	0.521469380
C 	4.723156360	1.942487790	1.010266100
H 	4.527480410	1.498708710	1.993748740
H 	6.243586040	2.341244360	-1.270992960
H 	4.566645480	2.009483910	-1.765967700
H 	5.848531160	0.825815260	-2.108314680
H 	7.313312010	1.030691550	0.631837070
H 	6.927858860	-0.500350730	-0.179271290
H 	6.398909610	-0.224448370	1.497162200
H 	5.482137330	2.723090530	1.137685590
H 	3.802568840	2.423026840	0.659259150
N 	2.493269350	-2.613605360	-0.361214800
H 	1.815414950	-3.337688720	-0.573004290
H 	3.474101980	-2.854243840	-0.311739490
Ti	-0.568366330	0.441067090	0.428539990
Cl	-1.938274930	2.193473830	0.738179470
Cl	-2.163613960	-1.057691070	-0.028037500
Cl	0.295850050	0.503456290	2.516847560
Cl	0.562600720	1.384215660	-1.286099840
