60

C 	-4.579491458	0.671387887	5.171688017
C 	-2.421805414	-0.169495492	4.078513198
C 	-1.336741608	-2.589434310	4.813449832
O 	0.561998665	-3.536297528	3.878795379
H 	-1.360979533	-0.614309309	-4.467695849
H 	-5.414115463	-0.541057926	6.617579132
H 	-1.433165644	0.872726974	2.612437761
C 	-2.950192692	-5.586192396	-3.971574769
H 	-2.703935963	-7.622449136	-3.710445843
H 	-4.896261278	-5.283068940	-4.608374522
H 	-2.765752917	-4.673634129	-2.125638611
H 	4.699096601	-7.598476365	-4.411548776
H 	1.709027701	-8.626020199	-3.337676444
H 	2.420521168	-8.648252608	-6.604339651
H 	10.376154200	1.337914023	2.379890823
H 	8.375597024	-0.922214431	3.826637925
H 	9.940452228	-1.678540574	0.973015553
N 	4.954254334	-1.123585205	-0.138448680
C 	4.335843472	-1.794934656	-2.587300067
N 	2.334617176	-3.475664395	-2.741986318
C 	6.785140026	0.861109348	0.424771056
H 	3.811298050	-1.709176038	1.274339074
C 	1.759274883	-4.844156918	-5.068881839
H 	1.773329071	-4.289666885	-1.110319283
H 	7.533653968	1.409544964	-1.418303691
C 	2.678568840	-7.595211264	-4.847919322
C 	8.996884610	-0.158699979	2.007976526
H 	5.703335241	5.317998847	-1.895415083
H 	2.909761852	-3.915517829	-6.511620779
C 	5.507595880	3.189691663	1.568896944
C 	4.686746034	3.259672037	4.087865960
C 	3.488088938	5.392368151	5.069496546
C 	3.091071320	7.512018964	3.550893801
C 	3.899007890	7.471832637	1.041701065
C 	5.090381823	5.330480717	0.066299393
H 	4.985376871	1.641789699	5.317134487
H 	2.876037414	5.402576237	7.032223136
H 	2.170836210	9.180936966	4.320292258
H 	3.610260143	9.113497999	-0.162094372
C 	-1.072783637	-4.490314868	-5.912333297
C 	-1.494691838	-5.791411365	-8.489033766
H 	-3.375770199	-5.332816982	-9.219104106
H 	-1.374157961	-7.849844826	-8.365506178
H 	-0.112855956	-5.153311812	-9.892422122
C 	-1.602575300	-1.641674640	-6.241966282
H 	-0.325352932	-0.796714640	-7.632378253
H 	-3.542668228	-1.340353038	-6.896475141
C 	-8.862430610	7.389584457	3.862644746
C 	-6.619218255	6.997716912	2.521259365
C 	-5.192116738	4.829995252	2.917588456
C 	-5.979231126	2.989172141	4.676696840
C 	-8.241620515	3.420010899	6.015709152
C 	-9.669516116	5.591702875	5.614191116
H 	-5.981466269	8.396098587	1.157821308
H 	-3.453721521	4.574361744	1.860594477
H 	-8.880126482	2.023972598	7.382483660
H 	-11.410202946	5.881411774	6.666266830
H 	-9.971184889	9.089312248	3.541594274
H 	-2.379611833	-3.612653136	6.331568802
O 	5.459245465	-0.972612338	-4.452055061
