60

C 	-5.219676661	0.526383323	5.439594044
C 	-3.022033220	-0.115276736	4.291501562
C 	-2.031652225	-2.677441418	4.488982067
O 	-0.076740702	-3.425134979	3.494711516
H 	-0.613192764	-0.511397560	-5.391687703
H 	-6.172640898	-0.963698085	6.502182819
H 	-1.912829983	1.211352274	3.183349688
C 	-2.854989270	-5.193541022	-4.611855988
H 	-2.892474040	-7.195793334	-4.097061741
H 	-4.645683754	-4.773051978	-5.561077251
H 	-2.814992481	-4.081318499	-2.868851114
H 	4.475999614	-8.039303760	-3.690506495
H 	1.262230738	-8.614860091	-2.993428248
H 	2.422261221	-9.094305117	-6.092359150
H 	10.168363563	1.132260692	2.912226864
H 	7.785009710	-0.796418220	4.258195208
H 	9.665976367	-1.983194431	1.769188545
N 	4.953268024	-1.190801406	-0.116934519
C 	4.567295004	-2.042943012	-2.559963958
N 	2.427210331	-3.524858111	-2.832208515
C 	6.868265998	0.702411351	0.488810994
H 	3.593992317	-1.520074296	1.182756566
C 	2.013996306	-5.089174062	-5.069945601
H 	1.586345780	-4.108302997	-1.221839729
H 	7.915480318	0.952254681	-1.271589144
C 	2.553020506	-7.874842618	-4.431629793
C 	8.725798185	-0.288732318	2.487720841
H 	6.140066829	4.710725175	-2.626934973
H 	3.453830565	-4.465948370	-6.413383565
C 	5.666849590	3.252032467	1.143941399
C 	4.730606042	3.810896106	3.558896708
C 	3.598348067	6.136771798	4.075015506
C 	3.381163874	7.959927598	2.182198479
C 	4.305179327	7.431810198	-0.230607116
C 	5.432834336	5.103414246	-0.737761508
H 	4.888184097	2.432887112	5.073658759
H 	2.898995416	6.529721462	5.968561298
H 	2.515137941	9.779547132	2.588205388
H 	4.157932664	8.838674276	-1.722761713
C 	-0.613325172	-4.544192440	-6.357243964
C 	-0.835498924	-6.099066411	-8.815544238
H 	-2.528233588	-5.536522993	-9.864722217
H 	-0.986773221	-8.128284753	-8.458159406
H 	0.793201261	-5.788369476	-10.055580705
C 	-0.748009190	-1.717634531	-7.061480532
H 	0.788491301	-1.188550360	-8.341303547
H 	-2.538219946	-1.297180740	-8.011316411
C 	-9.200901353	7.550239216	5.603283385
C 	-6.916377768	7.383470584	4.284656617
C 	-5.587199986	5.120660349	4.206676897
C 	-6.516219531	2.954666970	5.452988387
C 	-8.820801640	3.160275223	6.773536346
C 	-10.149361439	5.428802896	6.849075368
H 	-6.170479251	9.032500182	3.311981837
H 	-3.816912904	5.039890277	3.174191456
H 	-9.569297552	1.512153266	7.747392434
H 	-11.923739704	5.541984179	7.878606122
H 	-10.232574357	9.326454575	5.656187266
H 	-3.198211378	-3.999048388	5.644194566
O 	5.993419387	-1.521782656	-4.323271302
