12

C 	0.34014500	0.47537500	0.08649900
C 	1.44917000	-0.52142000	0.43843200
H 	1.57655200	-1.21513100	-0.39839400
C 	-0.98874200	-0.19287700	-0.15337500
H 	0.59146800	1.01229400	-0.83472900
H 	0.21538800	1.22990300	0.86933400
H 	0.94943100	-0.63506500	2.54523500
C 	1.12581800	-1.31007000	1.70609100
H 	1.96053700	-1.96497400	1.95638600
H 	0.23668200	-1.92185600	1.55669300
O 	-1.15591400	-1.37849800	-0.20503000
H 	2.36674500	0.01275500	0.57115500
