34

H 	1.987907617	0.883236365	0.411826517
C 	0.000000000	0.000000000	0.000000000
C 	1.502436922	0.000000000	0.000000000
C 	2.346258925	-1.170895761	-0.000000000
O 	3.361561788	-1.239124322	0.795530248
H 	-0.402125167	-0.831018036	-0.587589412
H 	-1.686074500	1.313918768	-0.409876482
H 	-0.356696262	1.451874820	-1.587023631
C 	-0.596741851	1.317294126	-0.525592956
H 	-0.197278480	2.179788882	0.018225705
N 	2.107990605	-2.242296118	-0.797507115
C 	2.876492419	-3.481234583	-0.603186483
C 	1.296629487	-2.173569001	-2.017662796
H 	3.177707193	-3.565620801	0.440579934
H 	3.775652190	-3.485145103	-1.233945045
H 	2.241305594	-4.328539663	-0.881713228
H 	0.383111809	-2.773287088	-1.918563784
H 	1.884316128	-2.571889900	-2.853959580
H 	1.036811477	-1.139087163	-2.241492538
C 	-0.125222504	0.655848638	2.480038740
C 	-0.361536867	0.347439477	3.817914108
C 	-0.790721307	-0.937123649	4.138916732
C 	-0.987473650	-1.920739028	3.172768103
C 	-0.745000205	-1.595083027	1.838415384
C 	-0.330768555	-0.303494318	1.471713485
H 	0.248480673	1.643876787	2.228834780
H 	-0.191713110	1.074531861	4.606412657
F 	-1.017177767	-1.249662537	5.449067805
H 	-1.313865939	-2.913510449	3.469414450
H 	-0.885108279	-2.353969538	1.070841965
Al	3.650869760	-0.454265606	2.454784532
F 	3.233867059	1.179184829	2.269089322
F 	5.278622316	-0.730028867	2.750697845
F 	2.578719508	-1.278913636	3.461445680
