20

H 	1.924135639	0.918775651	0.000331597
C 	0.000000000	0.000000000	0.000000000
C 	1.343731127	0.000000000	-0.000000000
C 	2.170603749	-1.210217448	-0.000000000
H 	-0.511672063	-0.963251185	-0.003474274
O 	3.366493956	-1.286332561	0.000614476
F 	1.408097316	-2.390099713	0.002554350
C 	-1.799767556	1.125399020	-1.268862810
C 	-0.909832594	1.205188788	0.003008774
C 	-0.144290087	2.542749737	0.017709490
C 	-1.816855812	1.107040816	1.261420735
H 	-1.220596370	1.163609709	2.179288385
H 	-2.520574000	1.951962681	-1.270613827
H 	-2.359791524	0.183329460	-1.302009800
H 	-1.191001775	1.195171876	-2.177528493
H 	-0.854069449	3.377750918	0.021068956
H 	0.494002822	2.648961638	-0.867236885
H 	0.485500136	2.633909344	0.910401258
H 	-2.538130938	1.933194247	1.265890071
H 	-2.376776022	0.164398362	1.273348311
