68

C 	0.000000000	0.000000000	0.000000000
C 	0.171795678	-1.354146415	-0.000000000
C 	1.449975896	-2.076298510	-0.000000000
O 	1.490437519	-3.325543442	0.100766969
H 	0.834886105	-5.477740460	5.074263193
H 	0.859565536	0.648458221	0.177336318
H 	-0.690323500	-2.011868392	-0.038519390
H 	-2.405593607	-6.593253003	-2.507809044
H 	-0.702133693	-6.309916357	-2.087140584
H 	1.712385222	-4.788995465	3.694188009
H 	-1.791740204	-7.083180099	-0.906725243
C 	0.506698092	0.435908506	-2.369442501
H 	-0.475915305	0.157150279	-2.726286410
H 	0.756377945	-6.268046317	3.489684439
H 	0.519030874	-1.935940457	2.818912187
H 	0.772384803	1.486525878	-2.327910321
H 	1.302267424	-0.291734487	-2.477192751
N 	-1.226639194	-4.577838318	0.006415315
C 	-1.512289911	-4.767168562	1.332734234
N 	-0.503122488	-4.349671331	2.155000540
C 	-2.109408890	-4.949577336	-1.103627172
H 	-0.280631018	-4.261838402	-0.217173413
C 	-0.461827295	-4.484183867	3.613060031
H 	0.347547596	-4.026840537	1.693419054
H 	-3.108708056	-5.031356733	-0.665770908
C 	0.788279603	-5.297438573	3.996186737
C 	-1.724997146	-6.322635340	-1.691712839
H 	-4.228928801	-3.465565605	-1.946462083
H 	-1.353672387	-5.061727504	3.878987219
C 	-2.118827304	-3.843114496	-2.150989728
C 	-0.945352518	-3.463245433	-2.824066403
C 	-0.971023380	-2.453602245	-3.789144741
C 	-2.173578004	-1.808941713	-4.103196249
C 	-3.346975489	-2.177697151	-3.438178882
C 	-3.315882947	-3.186947583	-2.469172731
H 	-0.003081662	-3.957352830	-2.595057594
H 	-0.052212001	-2.169944183	-4.297701332
H 	-2.193513439	-1.025155501	-4.857520279
H 	-4.284402059	-1.673888146	-3.665073915
C 	-0.591461248	-3.087146875	4.321593807
C 	-0.556683646	-3.279430931	5.854693290
H 	-0.795103614	-2.333934104	6.357696761
H 	0.429016158	-3.602293179	6.207203022
H 	-1.296697287	-4.024351819	6.174196214
C 	-1.953074477	-2.465977596	3.937484951
H 	-2.781481116	-3.105643342	4.259182039
H 	-2.067653748	-1.481556769	4.408880204
H 	-2.041473132	-2.343979382	2.853675306
C 	0.543578318	-2.128874136	3.897147724
H 	1.532238678	-2.527103802	4.154354216
H 	0.432006401	-1.163578426	4.406786257
S 	-2.975349972	-5.424523354	1.884928483
N 	2.614514084	-1.364964932	-0.114961896
H 	3.488541812	-1.874704448	-0.091142377
H 	2.632873505	-0.360780868	-0.220562992
C 	-1.458280684	0.816256927	1.805056953
C 	-1.341299406	0.682007077	0.256782126
C 	-2.530238989	-0.143715387	-0.278191036
C 	-1.372711032	2.103132290	-0.352502633
H 	-1.404622009	2.074797854	-1.445343311
H 	-2.394465826	1.327034679	2.061598432
H 	-0.627093699	1.402564762	2.216333813
H 	-1.454875425	-0.165809253	2.283653988
H 	-3.465360102	0.401982628	-0.107289713
H 	-2.618891816	-1.110977148	0.226590335
H 	-2.436222983	-0.333124080	-1.352092509
H 	-2.264120349	2.636601825	-0.002581594
H 	-0.492397204	2.683838927	-0.048151890
