68

C 	0.654549900	-0.721583570	2.155795990
C 	1.650047580	-1.620627020	1.891816090
C 	3.076235680	-1.316106330	1.711943320
O 	3.928001000	-2.228705790	1.586449600
H 	5.457449440	-4.842967590	6.144997260
H 	0.920033120	0.302079350	2.425399800
H 	1.415204480	-2.671830880	1.757938100
H 	2.811672140	-6.684530180	-1.624212360
H 	3.807427150	-5.285191660	-1.171218320
H 	5.512917110	-3.600091310	4.879367860
H 	3.937707510	-6.799784130	-0.245035690
C 	0.402579570	0.220073740	-0.096509520
H 	-0.288768660	-0.529254790	-0.459698300
H 	5.714598970	-5.309749410	4.453812450
H 	2.719309510	-2.129572720	4.503554540
H 	0.016545560	1.199778370	0.165637650
H 	1.434412650	0.144489640	-0.420796250
N 	2.700341640	-4.954180550	1.329413200
C 	2.745239850	-5.420489200	2.619215600
N 	3.368553670	-4.551957850	3.472595260
C 	2.131482000	-5.679180820	0.188591000
H 	3.179919310	-4.069857070	1.144204160
C 	3.659878250	-4.781887050	4.891180680
H 	3.744900950	-3.700380520	3.054575870
H 	1.654074970	-6.563141350	0.622077570
C 	5.176429150	-4.618457390	5.111520640
C 	3.243204150	-6.139444830	-0.776105920
H 	-0.536362120	-6.182885150	0.025615410
H 	3.383897990	-5.824749900	5.081559040
C 	1.061992600	-4.841134320	-0.506578280
C 	1.384510270	-3.647822310	-1.174489680
C 	0.397434880	-2.907647220	-1.832183320
C 	-0.932616470	-3.346023520	-1.826457010
C 	-1.266733620	-4.526617460	-1.154457660
C 	-0.274632930	-5.265759300	-0.499223480
H 	2.414377800	-3.294498570	-1.189268820
H 	0.666274620	-1.991078920	-2.353580280
H 	-1.700444890	-2.772999190	-2.343004460
H 	-2.298475640	-4.873379480	-1.139867960
C 	2.756230810	-3.889110740	5.817233340
C 	3.079220160	-4.192014110	7.298539810
H 	2.361010630	-3.681622220	7.952893770
H 	4.082288810	-3.851758480	7.579394260
H 	3.011778670	-5.268559970	7.502313930
C 	1.276293650	-4.250186460	5.554805670
H 	1.087385730	-5.308372650	5.763231430
H 	0.619242830	-3.644781120	6.192387120
H 	1.004123920	-4.073947050	4.509684240
C 	2.972858830	-2.383622560	5.538707100
H 	4.009382080	-2.078198020	5.725189980
H 	2.327754770	-1.782838170	6.192286710
S 	2.077733280	-6.904969990	3.101017460
N 	3.473406760	-0.003428520	1.696951060
H 	4.451046900	0.192276160	1.517656120
H 	2.811629230	0.760081560	1.666924930
C 	-0.708216320	-1.199808430	4.147525610
C 	-0.754630400	-1.117376330	2.590501520
C 	-1.182815670	-2.483176860	2.012689400
C 	-1.791265570	-0.033747550	2.205653590
H 	-1.971123180	-0.004443570	1.127167330
H 	-1.698941570	-1.475010860	4.530314330
H 	-0.429947320	-0.233502600	4.587353510
H 	0.013493510	-1.949908120	4.479147440
H 	-2.216086150	-2.701493820	2.306889370
H 	-0.557113380	-3.301088630	2.384436190
H 	-1.130895490	-2.489827320	0.919288170
H 	-2.746831440	-0.245952170	2.699880730
H 	-1.461179720	0.962800440	2.527663550
