28

H 	1.633331500	2.195346470	-0.100107750
C 	3.497044970	0.957662680	-0.208416480
C 	2.023964110	1.181112010	-0.068764640
C 	1.042125390	0.156378300	0.180785210
O 	-0.175036140	0.361007780	0.353182360
H 	3.663533400	-0.077582090	-0.528633450
H 	5.278359880	0.968093830	1.059501630
H 	3.811075860	0.378731060	1.885374290
C 	4.199094540	1.119351800	1.177783140
H 	4.029341730	2.117137250	1.595788460
O 	1.563990750	-1.111030010	0.222649380
C 	0.601661830	-2.174927310	0.488767190
H 	-0.154107780	-2.207522760	-0.302473310
H 	0.109162520	-2.007449820	1.451855830
H 	1.191574610	-3.092787590	0.504333460
C 	4.184753640	3.274073510	-1.064388410
C 	4.700589800	4.118484380	-2.052342040
C 	5.107906280	3.558995470	-3.261506580
C 	5.015732960	2.192937550	-3.511413450
C 	4.492404780	1.366176300	-2.509421610
C 	4.076717350	1.889011800	-1.275325790
H 	3.863903750	3.710218800	-0.120670810
H 	4.786737840	5.190348600	-1.894691020
F 	5.615716100	4.383504800	-4.236751660
H 	5.343751810	1.790491490	-4.466316820
H 	4.411099230	0.296124670	-2.693263290
I 	-1.244692990	2.876027710	0.655047570
I 	-2.318587400	5.413189860	1.004984570
