28

H 	1.968338232	1.820866253	1.474355030
C 	3.824207928	0.950710292	0.586304417
C 	2.368344230	0.962458137	0.940074047
C 	1.375457164	0.076791707	0.387951876
O 	0.154714192	0.319543834	0.357889071
H 	4.119454989	-0.064246227	0.300646561
H 	5.766862544	1.496433700	1.407958770
H 	4.666111261	0.735494398	2.581791783
C 	4.724151514	1.433090130	1.738715941
H 	4.421686002	2.421440573	2.103073502
O 	1.894388876	-1.079226916	-0.135519596
C 	0.928248992	-1.961862514	-0.771702044
H 	0.401802030	-1.432257062	-1.571585843
H 	0.200084640	-2.321497282	-0.037990017
H 	1.517194633	-2.789426679	-1.170562917
C 	3.846018118	3.227725803	-0.603525160
C 	3.801371674	4.010219764	-1.757846898
C 	3.791254816	3.369253811	-2.993622645
C 	3.828815232	1.982612135	-3.111937851
C 	3.872615832	1.216723207	-1.945002780
C 	3.891734735	1.825164678	-0.679143352
H 	3.830017207	3.722760786	0.363509248
H 	3.754405332	5.093719697	-1.710545043
F 	3.742221210	4.127987633	-4.131353213
H 	3.818587670	1.523023436	-4.096435716
H 	3.883091236	0.131756003	-2.016474356
I 	-0.059584078	2.824687302	-0.904601724
I 	0.019554110	5.199159940	-2.318855112
