28

H 	  1.993758	  0.956202	  0.048639
C 	  0.000000	  0.000000	  0.000000
C 	  1.470318	  0.000000	  0.000000
C 	  2.344123	 -1.120417	  0.000000
O 	  3.575518	 -1.072018	  0.245794
H 	 -0.370318	 -1.014278	 -0.181994
H 	 -1.610017	  0.949915	 -1.134729
H 	 -0.172046	  0.578418	 -2.099382
C 	 -0.516807	  0.937760	 -1.124229
H 	 -0.154513	  1.961865	 -0.993407
Cl	  1.675845	 -2.713916	 -0.380904
C 	  0.041268	 -0.608194	  2.488360
C 	 -0.544437	  0.395757	  1.469782
C 	 -2.080362	  0.269037	  1.456609
C 	 -0.132562	  1.828709	  1.862770
H 	 -0.517350	  2.574711	  1.159263
H 	 -0.404586	 -0.437847	  3.475209
H 	  1.125864	 -0.490216	  2.592790
H 	 -0.173977	 -1.643866	  2.198202
H 	 -2.462223	  0.422467	  2.473605
H 	 -2.397961	 -0.727939	  1.126610
H 	 -2.555473	  1.016133	  0.812767
H 	 -0.547888	  2.064490	  2.850007
H 	  0.954731	  1.936990	  1.933045
Al	  4.503252	  0.370421	  1.096685
F 	  3.603207	  0.473962	  2.517319
F 	  4.178039	  1.656249	  0.056084
F 	  6.082602	 -0.149359	  1.207405
