8

H 	1.916005411	0.924330472	0.000049887
C 	0.000000000	0.000000000	0.000000000
C 	1.340012050	0.000000000	0.000000000
C 	2.114389216	-1.256044116	0.000000000
H 	-0.562127180	-0.932593730	0.001232121
O 	3.330094066	-1.315400929	-0.000543628
H 	1.494937796	-2.185808635	-0.001140074
H 	-0.576995310	0.920868845	-0.000014181
