8

H 	0.053901485	-1.858316998	-0.521316781
C 	-0.859726576	-0.001669853	-0.050105719
C 	0.188329327	-0.805997859	-0.274849881
C 	1.582656276	-0.320809762	-0.205814856
H 	-0.729100655	1.051323537	0.196125334
O 	2.567737875	-1.011647257	-0.404136739
H 	1.680121357	0.763837386	0.048288035
H 	-1.883772799	-0.364144524	-0.104965463
