36

H 	1.697478120	2.067150730	0.860569950
C 	3.694365790	1.168630960	0.530538610
C 	2.193878820	1.144680470	0.570774310
C 	1.338665420	0.159102400	-0.002549730
O 	0.148580940	0.417097890	-0.377505040
H 	4.115882480	0.167929340	0.397165050
H 	5.394173910	1.926481320	1.666041840
H 	4.150392720	1.122701360	2.654871740
C 	4.315556270	1.785347350	1.797190240
H 	3.865572360	2.753830710	2.039622480
N 	1.834985760	-1.126146960	-0.278529760
C 	0.978443090	-1.985736270	-1.125003780
C 	2.561544590	-1.871003120	0.777723330
H 	0.627332430	-1.416151430	-1.986597130
H 	0.105613260	-2.349743830	-0.566248220
H 	1.580516810	-2.836437530	-1.459094820
H 	3.368727560	-2.463152990	0.332914070
H 	1.865515240	-2.549025470	1.291794110
H 	2.974646080	-1.184383130	1.516114560
O 	3.887109170	-0.105136190	-2.124580500
H 	3.274957900	-0.457889010	-1.436403480
C 	4.036280450	1.257547250	-2.008789780
C 	4.317810060	1.958443050	-3.189952140
C 	4.478517990	3.340587740	-3.163096270
C 	4.363474450	4.042503010	-1.951796970
C 	4.104059650	3.346997080	-0.774786160
C 	3.966156260	1.947089960	-0.767780080
H 	4.379145060	1.397566050	-4.119197810
H 	4.678031080	3.876859620	-4.088231510
H 	4.021614740	3.894256910	0.160176880
H 	4.478144090	5.123356470	-1.930786780
Ti	-1.062587420	2.094594200	-0.872802310
Cl	-2.293037170	3.903963470	-1.400306330
Cl	-0.928055660	2.606750730	1.334035020
Cl	0.643082610	2.624424770	-2.256698450
Cl	-2.558865390	0.567873360	-1.546784380
