36

H 	1.718589961	2.058473465	0.895504232
C 	3.710848957	1.163343962	0.541316239
C 	2.211790883	1.138610439	0.594295698
C 	1.352788136	0.163885435	0.008156127
O 	0.166784573	0.432519669	-0.366427002
H 	4.131027014	0.162981241	0.403901621
H 	5.421301057	1.921423538	1.658220247
H 	4.187499212	1.119761183	2.660435587
C 	4.344352601	1.780741703	1.800349219
H 	3.897876515	2.749638354	2.045829283
N 	1.836882967	-1.122536495	-0.275845594
C 	0.975500628	-1.964484439	-1.131382308
C 	2.550053107	-1.881572715	0.776691875
H 	0.633672459	-1.384161485	-1.988982500
H 	0.096249748	-2.323738983	-0.580267244
H 	1.568497966	-2.818584705	-1.471136674
H 	3.347833878	-2.484455633	0.330272007
H 	1.843689513	-2.550345289	1.288168893
H 	2.973637265	-1.203762295	1.516722145
O 	3.894854460	-0.108765163	-2.110956996
H 	3.283838820	-0.462247002	-1.422709780
C 	4.034611138	1.253993286	-1.998925456
C 	4.300102776	1.957113403	-3.182226335
C 	4.442032204	3.340853609	-3.157162803
C 	4.324979670	4.041937242	-1.946670893
C 	4.084747967	3.343828005	-0.767506186
C 	3.967567811	1.942937360	-0.758423844
H 	4.358497332	1.397270790	-4.111788812
H 	4.624106689	3.879558243	-4.083944008
H 	4.000790068	3.890980710	0.166928858
H 	4.421259545	5.124245086	-1.927743524
Ti	-1.042763974	2.097145774	-0.897566491
Cl	-2.271554458	3.893733079	-1.466945847
Cl	-0.930553466	2.644651610	1.299152163
Cl	0.667089758	2.601198876	-2.281838631
Cl	-2.530773258	0.554788412	-1.555482506
