13
GO radical R1=4_13 R2=2_12 Rcat=5_11_3
H       0.30883566      -1.71322737       0.34845077
C      -0.85933175       0.07325638       0.95361639
C       0.30566658      -0.62207952       0.35697327
C       1.44363467       0.02246096      -0.23005168
O       2.41991567      -0.55928782      -0.73004528
H      -0.69195270       1.15283717       0.94428296
H      -2.09949902       0.10683830       2.73788510
H      -0.38777363      -0.20492454       3.06899219
C      -1.20706757      -0.41125312       2.37345100
H      -1.40849480      -1.48746718       2.39475159
Xx       3.42239109      -1.86353536      -1.64238203
Xx      -1.64240618      -0.09588618       0.37199346
Xx       1.42143118       1.01216011      -0.21992316
