13
GO radical R1=4_13 R2=2_12 Rcat=5_11_3 center=2 plane=2_3_4 align=3_2
H       1.55360701       2.09570281       0.38173816
C       3.55291436       1.14853919       0.21435871
C       2.07078916       1.14952439       0.21453964
C       1.24159165       0.00000000       0.00000000
O       0.00000000       0.00000000       0.00000000
H       3.92338172       0.12754951       0.09632663
H       5.26234187       1.81851085       1.37700785
H       3.90364942       1.26299971       2.36806486
C       4.17109932       1.81120622       1.45947707
H       3.83380124       2.84662905       1.57520481
Xx      -0.92268605       1.49187981       0.00000000
Xx       3.85518321       1.65224884      -0.58251653
Xx       1.72685371      -0.84857167      -0.15667434



