9
GO FRAG R2=2_8 R1=4_7 Rcat=5_9_3 center=2 plane=2_3_4 active_atom=2 align=3_2
H       2.49467187       0.59752872       0.11809962
C       4.34312134      -0.42304305       0.06161598
C       3.00653226      -0.36428963       0.06479932
C       2.14028189      -1.56026068      -0.00000000
O       0.91945275      -1.56026068      -0.00000000
H       4.85992749      -1.37634434       0.01106507
Xx       2.63073936      -2.41902294      -0.04559423
Xx       4.89428799       0.39813005       0.10622613
Xx       0.00000000       0.00000000       0.00000000


