13
TSRC=2_10 radical R1=4_11 R2=2_13 Rcat=5_12_3
H       0.19369716      -1.85361092      -0.24516176
C      -0.92057816      -0.12292898       0.28183759
C       0.21368396      -0.77846351      -0.06958517
C       1.52168394      -0.13059856      -0.22805405
O       2.57084417      -0.68022178      -0.54313771
H      -0.89336882       0.89805987      -0.10545481
H      -0.74884495      -1.03601012       3.15572716
H      -0.83043797       0.82499071       3.05424652
H       0.75505389      -0.06291160       2.63347808
C      -0.30715464      -0.09926621       2.83876869
Xx       1.51773450       0.84470795      -0.05816698
Xx       3.65493393       0.10874344      -0.69253533
Xx      -1.84580625      -0.44147374      -0.12943717

