27

H 	1.200238060	2.212458310	-0.756285680
C 	2.998417650	1.043808330	-0.828596310
C 	1.637106230	1.217630270	-0.749125860
C 	0.663624870	0.180130350	-0.592116540
O 	-0.537749760	0.297223620	-0.417830720
H 	3.369682450	0.026272630	-0.924563080
H 	2.807225880	1.403354600	1.947331580
H 	4.585219810	1.022202110	1.521707770
H 	3.312695690	-0.350261600	1.566497580
C 	3.549483060	0.707587940	1.574466320
Br	1.365276200	-1.721018530	-0.656690580
C 	5.924480060	4.081703100	-1.565942920
C 	6.262764640	2.725268550	-1.653140390
C 	5.296996030	1.749576010	-1.406053450
C 	3.972225120	2.108300930	-1.072705330
C 	3.647095960	3.479985640	-0.988330450
C 	4.614112340	4.453215650	-1.233239740
H 	7.277649110	2.431090890	-1.911802590
H 	5.560550710	0.695073000	-1.469840560
H 	2.639526330	3.786166150	-0.719682310
H 	4.349233230	5.505897630	-1.161488530
H 	6.676702130	4.845199420	-1.752181170
Sn	-2.029670480	2.330058960	0.480474210
Cl	-0.293622600	2.276813620	2.093452420
Cl	-3.529555500	0.527536900	0.443923100
Cl	-3.382276820	4.084271860	1.329611470
Cl	-1.343945630	3.238854580	-1.593111740
