27

H 	-0.747968533	-1.993828866	0.001479658
C 	0.000000000	0.000000000	0.000000000
C 	-0.986214050	-0.932625523	-0.000000000
C 	-2.418462410	-0.640767187	-0.000000000
O 	-3.253640718	-1.566167210	-0.015357413
H 	-0.316263895	1.044990164	0.012647123
O 	1.992459729	2.064858821	0.597128751
H 	1.030483051	2.112074355	0.731590560
C 	2.362100800	0.791032306	0.231174457
C 	3.741472001	0.557998836	0.147529708
C 	4.215509737	-0.705544807	-0.190649331
C 	3.318043489	-1.755670000	-0.451758666
C 	1.952749440	-1.524324168	-0.377107704
C 	1.430074768	-0.249497554	-0.041251008
H 	4.419984358	1.379191542	0.362900544
H 	5.287731440	-0.877422316	-0.250604239
H 	1.261222838	-2.330731942	-0.604425654
H 	3.689797832	-2.740670449	-0.720660169
C 	-4.446821467	0.933919697	0.042508652
C 	-2.919600003	0.805670125	0.019553966
H 	-4.869614311	0.446427328	0.926636776
H 	-4.893710140	0.462315814	-0.838150544
H 	-4.734547567	1.990913405	0.056013017
H 	-2.478029772	1.304791920	0.894465051
H 	-2.504044355	1.317148270	-0.861077505
I 	-2.627073103	-4.212340289	-0.098845518
I 	-2.034446446	-6.941078126	-0.192406149
