27

H 	2.380561509	0.576228505	0.427056827
C 	4.269438783	-0.243554812	-0.115999905
C 	2.944852986	-0.317611700	0.171048106
C 	2.152360125	-1.545809582	0.169750835
O 	0.940793147	-1.518385782	0.462115767
H 	4.765428846	-1.180445205	-0.377567282
O 	6.939951623	-0.132621053	-1.318561895
H 	6.276215062	-0.837265411	-1.411505535
C 	6.400475491	0.948533548	-0.660336032
C 	7.214893261	2.086871320	-0.590502186
C 	6.748831583	3.239989453	0.032975529
C 	5.461757374	3.272848932	0.597552279
C 	4.657893698	2.144509214	0.536117990
C 	5.098490609	0.948421657	-0.085509186
H 	8.202793610	2.046004548	-1.041616230
H 	7.387166435	4.119257233	0.080014207
H 	3.673723802	2.164270227	0.995677678
H 	5.101119068	4.172615542	1.088566794
C 	1.818762569	-4.069741157	-0.168137174
C 	2.794505316	-2.887886231	-0.191056539
H 	0.998633171	-3.916996780	-0.876757003
H 	1.376160817	-4.194268041	0.824977661
H 	2.342600364	-4.994168037	-0.435032812
H 	3.253575704	-2.786725634	-1.185338770
H 	3.625338084	-3.061666670	0.508461473
I 	-0.424840288	0.721503790	1.183038251
I 	-1.868548779	2.991777057	1.936387583
