25

H 	  1.920891	  0.919236	 -0.004465
C 	  0.000000	  0.000000	  0.000000
C 	  1.347008	  0.000000	 -0.000000
C 	  2.153178	 -1.205881	 -0.000000
O 	  3.364951	 -1.299019	 -0.001928
H 	 -0.519737	 -0.959007	  0.004701
C 	 -1.788527	  1.118653	 -1.278649
C 	 -0.892412	  1.212877	 -0.010120
C 	 -0.108064	  2.539568	 -0.021648
C 	 -1.794348	  1.140822	  1.254837
H 	 -1.193878	  1.209831	  2.168829
H 	 -2.494806	  1.957071	 -1.291367
H 	 -2.364444	  0.185922	 -1.290856
H 	 -1.182632	  1.162975	 -2.190470
H 	 -0.807356	  3.382831	 -0.031020
H 	  0.527818	  2.621655	 -0.910583
H 	  0.525387	  2.639329	  0.866854
H 	 -2.506640	  1.974232	  1.245364
H 	 -2.363903	  0.204562	  1.285250
F 	  1.435665	 -2.377845	  0.000613
Ti	  5.182546	  0.255917	  0.030769
Cl	  6.346010	 -1.628833	 -0.000939
Cl	  4.212126	  0.853823	  1.956187
Cl	  4.215385	  0.935815	 -1.871518
Cl	  6.860689	  1.706331	  0.062098
