25

H 	0.765962390	0.167558640	0.097067890
C 	0.108368790	-1.857193510	0.009725770
C 	1.018461990	-0.884719450	0.190623510
C 	2.422277130	-1.124928840	0.542795010
O 	3.277633490	-0.313603770	0.760350890
H 	0.437920230	-2.891022450	0.125144980
C 	-1.646715580	-2.507821270	-1.613299970
C 	-1.355130920	-1.689290440	-0.323113880
C 	-1.766840570	-0.219686090	-0.540238340
C 	-2.170905100	-2.293117600	0.856696910
H 	-1.990523440	-1.734351430	1.782518510
H 	-2.717921370	-2.464340750	-1.845640530
H 	-1.366223370	-3.560871720	-1.487931870
H 	-1.091130420	-2.102762770	-2.467328580
H 	-2.835054030	-0.165458720	-0.780472270
H 	-1.213350920	0.232984950	-1.370534230
H 	-1.595355580	0.384065660	0.357739090
H 	-3.242898820	-2.247553020	0.627816920
H 	-1.902199730	-3.342266890	1.030047630
F 	2.739729990	-2.494766920	0.619036030
Ti	0.636411120	3.536680850	0.872819750
Cl	2.793966350	3.201769060	0.945193450
Cl	-0.360805580	2.183115320	2.297787960
Cl	-0.096504330	3.113480450	-1.159569050
Cl	0.179215990	5.622368170	1.396688330
