22

C 	1.373876604	-0.000000000	0.000000000
C 	0.000000000	0.000000000	0.000000000
C 	-0.550542819	0.469495701	2.309285149
H 	1.946218954	-0.922957797	0.023233137
C 	2.189293565	1.195031942	0.000000000
H 	-0.099160401	-0.425708604	2.720413415
H 	-0.498558414	0.949344635	-0.176273176
H 	-1.627333268	0.489302229	2.185919821
H 	-0.017035451	1.409020996	2.393708626
O 	3.387897007	1.291899320	-0.014684454
F 	1.409904363	2.377275478	0.029264574
C 	-2.530801483	-3.438535956	-0.422263112
C 	-3.020588253	-2.152901002	-0.677875643
C 	-2.185705423	-1.045196435	-0.525138563
C 	-0.842587536	-1.198083258	-0.125926093
C 	-0.365435114	-2.498810696	0.134320321
C 	-1.200088982	-3.605297450	-0.016087561
H 	-4.051574846	-2.014116982	-0.995696081
H 	-2.568781211	-0.045519179	-0.722469847
H 	0.660676557	-2.645770870	0.461753886
H 	-0.815446351	-4.602132504	0.188099710
H 	-3.179693197	-4.304026981	-0.535349100
