35

H 	1.991121194	0.958232452	0.146357944
C 	0.000000000	0.000000000	0.000000000
C 	1.501039532	-0.000000000	-0.000000000
C 	2.424433981	-1.113863794	0.000000000
O 	3.518065812	-1.010241222	0.662245086
H 	-0.344443321	0.131877193	-1.040146099
H 	-1.616338144	1.275236071	0.732900940
H 	-0.119749225	2.161727713	0.353485603
C 	-0.523924079	1.238408652	0.783614875
H 	-0.218288360	1.178310143	1.832397823
N 	2.188629827	-2.289953917	-0.634244544
C 	3.095108374	-3.424993119	-0.408186667
C 	1.198189451	-2.471580413	-1.697714307
H 	3.599866754	-3.306238283	0.549985487
H 	3.851603917	-3.479903104	-1.202527294
H 	2.502367687	-4.345947344	-0.415616317
H 	0.423431557	-3.180007808	-1.385385416
H 	1.705662211	-2.868276786	-2.586245894
H 	0.735994073	-1.522995724	-1.962902352
C 	-0.189612918	-1.897581921	1.711915732
C 	-0.810865945	-3.046322020	2.206727429
C 	-1.908566964	-3.597339310	1.534966636
C 	-2.386254883	-2.993673939	0.367580449
C 	-1.743939031	-1.851284250	-0.098095559
C 	-0.640296490	-1.274671880	0.536348345
H 	0.658870644	-1.470246695	2.240475078
H 	-0.440493724	-3.507717967	3.118734391
H 	-2.396767491	-4.490626112	1.917090077
H 	-3.237709630	-3.390216136	-0.178899973
F 	-2.216158636	-1.273951441	-1.258466103
Ti	4.490071611	0.217619517	2.019220572
Cl	5.478241831	1.590552156	3.509242993
Cl	4.804873792	1.612769783	0.265709034
Cl	2.494819477	0.260683387	3.135181760
Cl	5.892959268	-1.507105205	2.328959784
