35

H 	1.451012970	1.457002565	1.772478662
C 	3.447047603	1.442672324	0.813398853
C 	1.999912586	1.059564756	0.923619123
C 	1.153830565	0.365342100	-0.022715901
O 	-0.078544530	0.708248518	-0.117603147
H 	4.047042939	0.674888997	1.331521486
H 	4.762327741	3.021373898	1.557481724
H 	3.383981081	2.672409566	2.628922905
C 	3.697285844	2.771765980	1.583525841
H 	3.129591176	3.586559422	1.124390670
N 	1.594341804	-0.613514185	-0.852684537
C 	0.706043355	-1.114367126	-1.911547941
C 	2.835687286	-1.365886520	-0.657939770
H 	-0.036917720	-0.356038516	-2.156342080
H 	0.187490063	-2.024990031	-1.582692270
H 	1.315954260	-1.348713872	-2.790549474
H 	3.528684029	-1.186541191	-1.486950790
H 	2.595497074	-2.436059801	-0.620219621
H 	3.313324043	-1.089418762	0.279712022
C 	3.255508886	2.207577131	-1.624973398
C 	3.770045589	2.326126758	-2.917875452
C 	5.026576721	1.791754157	-3.226753395
C 	5.769744676	1.140882906	-2.237078628
C 	5.227502051	1.039832899	-0.960270172
C 	3.974027864	1.550578674	-0.612464243
H 	2.281753633	2.629359008	-1.388720382
H 	3.191764298	2.839534539	-3.681957711
H 	5.432305868	1.882921211	-4.231438328
H 	6.749850010	0.716857502	-2.438219729
F 	5.964599502	0.382863332	0.002975728
Ti	-1.420665143	2.152808305	0.519404716
Cl	-2.819059096	3.769362304	1.235532322
Cl	-1.318980959	1.112724074	2.526450434
Cl	0.208169171	3.656093926	-0.042098683
Cl	-2.786146871	1.355710525	-1.073957233
