35

H 	1.989643253	0.918672523	0.314726167
C 	0.000000000	0.000000000	0.000000000
C 	1.501606490	-0.000000000	0.000000000
C 	2.387066817	-1.138023403	0.000000000
O 	3.484110933	-1.111560836	0.676018305
H 	-0.395254125	-0.864835619	-0.540626611
H 	-1.670900541	1.281092971	-0.562002472
H 	-0.288791687	1.366342182	-1.683091643
C 	-0.577450601	1.285331805	-0.628074868
H 	-0.208003865	2.175891259	-0.107853373
N 	2.112178620	-2.275166506	-0.697562739
C 	2.937881370	-3.470441663	-0.466074247
C 	1.249679787	-2.312257951	-1.884075669
H 	3.238721044	-3.508470141	0.580216272
H 	3.836879008	-3.454053016	-1.097020062
H 	2.338868650	-4.351857163	-0.715710486
H 	0.354510312	-2.920507117	-1.702429467
H 	1.810691441	-2.760767477	-2.713521613
H 	0.958280021	-1.303430523	-2.175434516
C 	-0.070611377	0.755184293	2.450558002
C 	-0.419898855	0.561363203	3.787031392
C 	-1.123399631	-0.590618726	4.128279845
C 	-1.480164215	-1.551231029	3.185796707
C 	-1.111170180	-1.344814077	1.855112836
C 	-0.417861568	-0.188907102	1.468354070
H 	0.495673762	1.642011346	2.183033006
H 	-0.141874845	1.276484083	4.555739948
F 	-1.471100668	-0.790643324	5.435071927
H 	-2.023553597	-2.439176056	3.496462134
H 	-1.369383479	-2.093962486	1.109212803
Sn	3.828085410	-0.671551662	2.872918134
Cl	3.501489959	1.647449664	2.342972787
Cl	5.983131087	-1.531197556	2.402116176
Cl	4.090751459	-0.278429271	5.229899517
Cl	2.081462798	-2.291164681	3.144819476
