35

H 	1.785528353	1.800230573	1.330088403
C 	3.701651056	1.028910431	0.533074558
C 	2.231369967	0.946343106	0.826806080
C 	1.254938504	0.075281527	0.221025112
O 	0.062321904	0.499886569	-0.021014165
H 	4.102257834	0.053170879	0.243436613
H 	5.561491330	1.659304282	1.477824443
H 	4.417081387	0.872435104	2.593842373
C 	4.503086327	1.556716380	1.741018047
H 	4.133874798	2.538403915	2.057545873
N 	1.539593305	-1.211990371	-0.121253193
C 	0.574731930	-1.961633070	-0.940480271
C 	2.592910738	-2.008924658	0.517895516
H 	0.089231451	-1.284718556	-1.642442199
H 	-0.191000004	-2.433969940	-0.310313272
H 	1.121166691	-2.737645613	-1.485678729
H 	3.378397387	-2.274082314	-0.201126680
H 	2.148935320	-2.935402696	0.903122357
H 	3.027401229	-1.464647619	1.356058447
C 	3.404780247	3.267049509	-0.684761637
C 	3.488921040	4.067078888	-1.824324184
C 	4.005879209	3.508435214	-2.990127646
C 	4.431518437	2.184472204	-3.055584671
C 	4.328257239	1.396450646	-1.907611121
C 	3.829802145	1.927132640	-0.709154093
H 	2.983479414	3.692426853	0.220926183
H 	3.147875585	5.098233416	-1.820274063
F 	4.093182839	4.283442860	-4.112781922
H 	4.822571762	1.786753556	-3.987855325
H 	4.642550269	0.355333387	-1.947095937
Sn	-0.625392914	2.312692283	-1.195356172
Cl	0.012263094	3.641284047	0.700300059
Cl	-2.733882563	1.248584283	-1.031609476
Cl	-1.266658178	4.206389633	-2.530117992
Cl	0.880367190	1.425696874	-2.836603525
