25

C 	0.207974380	0.501631910	0.210938780
C 	1.391282320	-0.471932660	0.498590340
H 	1.497512220	-1.108323670	-0.390701220
C 	-1.055104440	-0.223631990	-0.171673510
H 	0.460148130	1.167854170	-0.621383980
H 	-0.022215170	1.111363910	1.090854620
H 	0.897171070	-0.797851960	2.612773300
C 	1.029922200	-1.379384380	1.692255190
H 	1.800238140	-2.134052520	1.873628550
H 	0.090266490	-1.912058580	1.505325590
O 	-2.110017250	-0.281494640	0.381205960
F 	-0.870547390	-0.918639550	-1.384388900
C 	3.069269670	1.103211030	-0.621891670
C 	2.766762570	0.278031590	0.653818960
C 	3.893287090	-0.775766470	0.808043160
C 	2.786233910	1.221722960	1.878664350
H 	2.620101690	0.677555890	2.815209090
H 	4.092501600	1.496430510	-0.580385670
H 	2.398576680	1.963233910	-0.730294950
H 	2.983124610	0.484318790	-1.524609300
H 	4.872782950	-0.282310260	0.805263270
H 	3.875759560	-1.494146820	-0.021894630
H 	3.808766040	-1.335008610	1.745723530
H 	3.762935010	1.716005820	1.953699110
H 	2.026353910	2.008827940	1.800300990
