25

C 	0.207974375	0.501631912	0.210938785
C 	1.391282322	-0.471932656	0.498590345
H 	1.497512216	-1.108323674	-0.390701219
C 	-1.055104443	-0.223631993	-0.171673508
H 	0.460148132	1.167854167	-0.621383980
H 	-0.022215168	1.111363911	1.090854623
H 	0.897171067	-0.797851956	2.612773297
C 	1.029922202	-1.379384384	1.692255191
H 	1.800238139	-2.134052520	1.873628550
H 	0.090266492	-1.912058577	1.505325589
O 	-2.110017254	-0.281494642	0.381205958
F 	-0.870547388	-0.918639555	-1.384388905
C 	3.069269668	1.103211034	-0.621891671
C 	2.766762566	0.278031595	0.653818961
C 	3.893287086	-0.775766472	0.808043159
C 	2.786233911	1.221722962	1.878664352
H 	2.620101689	0.677555889	2.815209089
H 	4.092501602	1.496430509	-0.580385668
H 	2.398576676	1.963233906	-0.730294947
H 	2.983124607	0.484318785	-1.524609305
H 	4.872782946	-0.282310256	0.805263267
H 	3.875759562	-1.494146819	-0.021894626
H 	3.808766044	-1.335008608	1.745723529
H 	3.762935007	1.716005825	1.953699106
H 	2.026353913	2.008827938	1.800300995
