27

H 	1.586035340	2.538715440	-0.430878610
C 	3.281899330	1.230435470	-0.491904770
C 	1.944649140	1.512960300	-0.395268090
C 	0.987100410	0.487249490	-0.126070900
O 	-0.233623740	0.664937670	0.117589740
H 	3.582210530	0.180386880	-0.462728700
H 	2.796530540	1.965246810	2.238767930
H 	4.590276530	1.424100950	2.252260280
H 	3.232533380	0.155911470	2.142899230
C 	3.543628420	1.193809930	2.090426860
H 	1.353751040	-0.556594270	-0.130670900
C 	4.332444900	2.064037690	-2.537081290
C 	4.345434100	2.194942820	-0.976733650
C 	5.749215120	1.783936140	-0.471647380
C 	4.044859700	3.658410970	-0.585260600
H 	3.968427580	3.769683230	0.501778840
H 	5.101631890	2.723001030	-2.958110590
H 	3.358660670	2.353275620	-2.946202530
H 	4.550814000	1.036872940	-2.853268680
H 	6.516115180	2.380435010	-0.979378710
H 	5.951751620	0.725456370	-0.677575220
H 	5.852340560	1.950198220	0.604516730
H 	4.852907100	4.306783480	-0.943027280
H 	3.110949840	4.017780870	-1.030458990
Zn	-1.118689840	2.489068850	0.634447410
Cl	-2.974349720	2.706050060	-0.416853260
Cl	0.263977850	3.419796150	2.031449970
