27

H 	0.545905183	-1.803553201	-0.053590749
C 	-0.674596163	-0.031549997	-0.180941054
C 	0.511296920	-0.721719524	-0.164138414
C 	1.762324140	-0.033445019	-0.252693203
O 	2.872101850	-0.625063687	-0.223978882
H 	-0.629824818	1.041752078	-0.375948261
H 	-0.912533808	-0.129219999	2.678071097
H 	-1.345484994	1.607913355	2.141101811
H 	0.436959621	1.070650829	2.222660670
C 	-0.615244763	0.811867742	2.229715569
H 	1.744368864	1.068356707	-0.340128997
C 	-3.151177264	0.200653909	0.314618588
C 	-2.045749552	-0.660241527	-0.343369879
C 	-2.111099092	-2.099851724	0.210793071
C 	-2.301378518	-0.684750795	-1.886099421
H 	-1.544065584	-1.287021998	-2.399642549
H 	-4.137618095	-0.153562553	-0.007081207
H 	-3.061426641	1.255486323	0.027088061
H 	-3.109881739	0.133655207	1.405863181
H 	-3.130259339	-2.489571474	0.106292580
H 	-1.844827967	-2.127646631	1.273974221
H 	-1.441776588	-2.777669025	-0.330116999
H 	-3.288883903	-1.120538939	-2.081319517
H 	-2.283947170	0.327246451	-2.307666396
Zn	4.669112030	0.481586958	-0.250650285
Cl	6.318607395	-0.881346119	-0.293279952
Cl	3.996500748	2.543891212	-0.196436752
