29

H 	2.018915890	0.948668815	-0.060789200
C 	0.000000000	0.000000000	0.000000000
C 	1.498867146	0.000000000	-0.000000000
C 	2.343655748	-1.170865954	0.000000000
O 	3.619434012	-1.106620625	0.011465671
H 	-0.328087616	-0.430128686	-0.964902884
H 	-1.642853005	1.438120302	0.028395427
H 	-0.161510282	2.051176847	-0.746599933
C 	-0.549700601	1.444806092	0.079615743
H 	-0.252487146	1.913100709	1.024252365
N 	1.779983463	-2.405701440	-0.064162134
H 	0.789391027	-2.536795132	0.110353747
H 	2.398728882	-3.205635767	0.011095377
C 	-1.717363945	-2.474905197	3.130030581
C 	-0.702393047	-1.558293009	3.432336275
C 	-0.144164478	-0.768828706	2.424893094
C 	-0.596822602	-0.882860513	1.099698708
C 	-1.612078726	-1.804680716	0.803344311
C 	-2.172096062	-2.596551908	1.813399777
H 	-0.343042617	-1.460563490	4.454335606
H 	0.653478159	-0.068491867	2.662958406
H 	-1.973356161	-1.896389859	-0.220343845
H 	-2.962868094	-3.303128968	1.570754595
H 	-2.150138752	-3.089468332	3.916052643
Sn	5.019043457	0.584329001	0.675440888
Cl	4.347068415	1.664024901	-1.348109817
Cl	6.588244726	-1.184620824	0.608851541
Cl	6.516689874	2.303237023	1.420492150
Cl	3.516863084	0.760530034	2.547224923
