28

H 	0.805267158	-1.577770400	0.517113676
C 	-0.678798916	0.022387663	0.951435310
C 	0.593811784	-0.512504776	0.439058633
C 	1.588531997	0.231177990	-0.249836446
O 	2.554528073	-0.216621686	-0.899641879
H 	-0.635902923	1.117202605	0.973456260
H 	-1.883112434	-0.132714004	2.771192511
H 	-0.136538189	-0.176853843	3.055986481
C 	-0.933584824	-0.511507488	2.383884326
H 	-0.956939577	-1.605396764	2.407076226
F 	1.480868410	1.580444627	-0.203629122
C 	-1.499289238	0.249795231	-1.471692450
C 	-1.872103740	-0.327817006	-0.087795712
C 	-3.157215146	0.355460742	0.417310474
C 	-2.085505879	-1.849855883	-0.204490557
H 	-2.358273638	-2.301689130	0.755084503
H 	-2.346377888	0.141706660	-2.158804116
H 	-0.649269799	-0.281329636	-1.915558202
H 	-1.255012736	1.317357157	-1.408318788
H 	-3.953960305	0.212761489	-0.323373398
H 	-3.012409416	1.434870744	0.549453488
H 	-3.511358970	-0.066346633	1.363196977
H 	-2.906699108	-2.045736169	-0.904420969
H 	-1.196949350	-2.357701006	-0.594325252
Al	2.733910868	-2.026872490	-1.510008792
F 	1.303070604	-2.150414501	-2.389402758
F 	2.656801161	-2.884007341	-0.061967346
F 	4.175019238	-2.049747541	-2.344940538
