36

H 	2.073542379	0.435995037	-0.184177583
C 	0.000000000	0.000000000	0.000000000
C 	1.337776453	-0.337610998	0.000000000
C 	1.897738318	-1.675664345	0.000000000
O 	3.005080131	-1.928739491	-0.599086859
H 	-0.738519117	-0.729499473	0.315812863
H 	-0.056890972	-0.076644341	-2.699742579
H 	-1.771323228	-0.375515473	-2.031874044
H 	-0.517473380	-1.753807318	-2.056842971
C 	-0.739626399	-0.694443072	-2.130951450
N 	1.273828689	-2.737275727	0.585025471
C 	0.291576645	-2.616618133	1.669989598
C 	1.811385857	-4.090335298	0.366096712
H 	0.294461830	-1.603706879	2.073011007
H 	0.571434383	-3.310978625	2.470855914
H 	-0.720100411	-2.874630144	1.329064522
H 	0.982154842	-4.803709974	0.415269697
H 	2.552135561	-4.346779744	1.135825116
H 	2.294007947	-4.141432522	-0.609477073
O 	-1.923644669	5.323784863	-0.150204675
H 	-2.831346262	5.378484630	0.198507244
C 	-1.492625510	4.017730063	-0.101360545
C 	-0.198054488	3.748934971	-0.574643653
C 	0.291583545	2.449167400	-0.549609960
C 	-0.488734760	1.383012765	-0.051995417
C 	-1.791191111	1.672530772	0.398906593
C 	-2.291561538	2.972918035	0.385244433
H 	0.402451541	4.566484756	-0.964623395
H 	1.285673607	2.256693581	-0.943665327
H 	-2.419208223	0.865440978	0.772710975
H 	-3.298529940	3.177533652	0.747268903
Sn	4.524862072	-0.710710990	-1.739190653
Cl	5.455576262	-2.873454604	-2.044363861
Cl	4.813537173	0.467473660	0.323395548
Cl	6.232425474	0.490598934	-2.935144046
Cl	2.722359565	-0.011476720	-3.154687166
