24

H 	1.946397697	0.922031212	-0.035687147
C 	0.000000000	0.000000000	0.000000000
C 	1.373851163	0.000000000	-0.000000000
C 	2.183103161	-1.188051801	-0.000000000
O 	3.394177787	-1.285830366	-0.022030635
H 	-0.504893870	-0.949305827	0.160193702
H 	-0.029065122	0.475198284	-2.727152973
H 	-1.591193299	-0.421635315	-2.256774825
H 	0.007041687	-1.369005204	-2.446213691
C 	-0.512221437	-0.421720956	-2.358683606
F 	1.442159570	-2.373182954	0.019883276
C 	-2.525969009	3.442374245	0.361656960
C 	-3.032209379	2.157491621	0.587038006
C 	-2.198538605	1.046948729	0.453907066
C 	-0.839914934	1.197864732	0.106901827
C 	-0.344269587	2.499201611	-0.118129600
C 	-1.179892063	3.607291394	0.007175022
H 	-4.076080821	2.021858510	0.860725539
H 	-2.593617920	0.047288543	0.625745754
H 	0.695084178	2.645336226	-0.400128226
H 	-0.783465966	4.603921348	-0.172882133
H 	-3.175071705	4.309775083	0.456996004
I 	4.958778764	1.046578539	-0.374169430
I 	6.383880050	3.385816378	-0.765464476
