24

H 	1.993091341	0.948895748	0.198903484
C 	0.000000000	0.000000000	0.000000000
C 	1.491742834	0.000000000	0.000000000
C 	2.380255603	-1.112949052	-0.000000000
O 	3.545861316	-1.129726509	0.356948473
H 	-0.365605505	-0.967699754	-0.355720580
H 	-1.686640686	1.156514314	-0.741184268
H 	-0.383459795	0.921118570	-1.930756176
C 	-0.600081828	1.116976570	-0.875057220
H 	-0.187350742	2.100344842	-0.624996070
I 	1.513925853	-3.046240230	-0.808744053
C 	-0.691780686	0.217389222	4.287478507
C 	-0.668533751	-1.018583961	3.632113857
C 	-0.477212653	-1.075250810	2.250848238
C 	-0.323546425	0.104595390	1.502403559
C 	-0.344268729	1.341358278	2.169204155
C 	-0.533536326	1.396824878	3.550823274
H 	-0.789169098	-1.939278417	4.198483500
H 	-0.430164758	-2.037608676	1.746669614
H 	-0.205037470	2.264415547	1.612816844
H 	-0.540453823	2.359107716	4.056616940
H 	-0.818828709	0.261993971	5.366231570
I 	3.459272802	0.144718417	3.010821327
I 	3.085376467	1.274142162	5.490627863
