24

H 	0.816877020	-1.283155910	0.433439910
C 	-0.802534560	0.089353940	1.094915930
C 	0.494101880	-0.239446630	0.436815460
C 	1.345373030	0.603148200	-0.333226290
O 	2.318080700	0.263323420	-0.992778300
H 	-0.852552790	1.168043200	1.276795030
H 	-1.973216460	-0.432045280	2.854137630
H 	-0.218704940	-0.358843390	3.152448600
C 	-0.988129440	-0.661677410	2.432759260
H 	-0.920795370	-1.747047670	2.295411760
I 	0.868529810	2.807187300	-0.287338390
C 	-3.868054500	-0.838107060	-1.851664730
C 	-3.658535460	0.484481120	-1.440516610
C 	-2.666604090	0.778161790	-0.500707470
C 	-1.889744200	-0.249217110	0.057382780
C 	-2.097357900	-1.574055820	-0.368959760
C 	-3.083837890	-1.865909650	-1.314139350
H 	-4.265706180	1.287459560	-1.853593250
H 	-2.493862100	1.807063050	-0.193540500
H 	-1.489812280	-2.380545120	0.035352370
H 	-3.235700830	-2.894131930	-1.636114130
H 	-4.634052700	-1.065244970	-2.590038830
I 	2.499306770	-2.453088800	-1.800248520
I 	2.538050710	-5.108093000	-2.575238880
