66

C 	0.149937190	0.612158549	2.507730927
C 	1.743472313	-1.714163815	2.646322550
C 	4.433736208	-1.732299893	2.939123577
O 	5.759464521	-3.687594469	2.964303061
H 	10.062202073	-9.605432463	11.631503035
H 	1.397947455	2.253063568	2.759925819
H 	0.854417857	-3.555515859	2.398182732
H 	7.690646134	-12.550305858	-3.587195132
H 	8.668270962	-9.572963527	-2.397624304
H 	9.770778983	-7.062783950	9.475420284
H 	9.760275621	-12.371212315	-0.943561583
C 	-0.961274185	0.796975066	-0.203390110
H 	-2.234686537	-0.774126872	-0.629808914
H 	10.690962897	-10.083453499	8.391191432
H 	3.934725668	-5.192486631	8.912822075
H 	-1.994444240	2.567636381	-0.457844353
H 	0.563984410	0.762513024	-1.600178338
N 	6.455990900	-10.098110920	2.274678010
C 	6.216838443	-11.147668786	4.677684475
N 	6.056406579	-9.318390633	6.560066199
C 	5.866501733	-11.528683504	-0.034760475
H 	6.156695390	-8.210499872	2.148263951
C 	6.691790013	-9.846160318	9.206070888
H 	6.439366800	-7.533764340	5.988346785
H 	5.582372136	-13.473242049	0.597209212
C 	9.456839831	-9.094606256	9.723429209
C 	8.126186493	-11.496396014	-1.859375622
H 	1.167597774	-13.535803175	0.542612096
H 	6.544378524	-11.899028242	9.391490632
C 	3.385713635	-10.598922172	-1.203732977
C 	3.261612597	-8.451793006	-2.756287967
C 	0.958813319	-7.601385057	-3.724304295
C 	-1.276978332	-8.884867687	-3.164090708
C 	-1.183538961	-11.025996154	-1.625076473
C 	1.122481916	-11.867169403	-0.658418358
H 	4.970710328	-7.415194032	-3.232193524
H 	0.915373357	-5.934837885	-4.931315928
H 	-3.071562593	-8.231190662	-3.929355763
H 	-2.910509578	-12.052387344	-1.180110363
C 	4.672133755	-8.674636201	11.054832938
C 	5.345068167	-9.353093188	13.812118684
H 	3.804603210	-8.794360171	15.077816877
H 	7.051701370	-8.386027700	14.464355568
H 	5.634501124	-11.390467083	14.045200666
C 	2.061749390	-9.821849751	10.437083057
H 	2.075188807	-11.879658026	10.662171598
H 	0.616481900	-9.054597066	11.706501180
H 	1.496932826	-9.409198577	8.493429922
C 	4.505835496	-5.770010745	10.814143358
H 	6.299008097	-4.838152427	11.258548672
H 	3.090160604	-5.024574727	12.129746645
C 	-3.405400843	3.302666127	4.412495172
C 	-1.898598443	0.819563673	4.703776196
C 	-0.496051378	0.909237384	7.261352934
C 	-3.763549336	-1.421294997	4.709720416
H 	-2.819022385	-3.229940025	5.043042117
H 	-4.616242481	3.581864605	6.068914555
H 	-4.641033289	3.293841698	2.756689835
H 	-2.156462973	4.949795423	4.275468518
H 	-1.844982937	1.129456056	8.815963305
H 	0.816291284	2.509823467	7.346571631
H 	0.583262852	-0.818514424	7.613770457
H 	-5.149724946	-1.171624929	6.226694693
H 	-4.821373967	-1.564633270	2.938826324
H 	5.358569116	0.142782422	3.156116440
O 	6.159609768	-13.445242715	5.087814618
