24

H 	2.544301157	0.688103822	-0.012071009
C 	4.329150850	-0.457002261	0.149693394
C 	2.979249805	-0.306086500	-0.070347907
C 	2.089174408	-1.375305319	-0.353259791
O 	0.845779219	-1.171854372	-0.518120460
H 	4.800350520	-1.436621901	0.098740018
C 	6.604946984	0.400179721	0.690473448
H 	6.857005877	0.694134720	1.716808539
H 	7.182554302	1.017675180	-0.007668840
H 	6.885502233	-0.646642204	0.546226065
N 	5.171239519	0.548425157	0.444113852
H 	4.779877029	1.483823913	0.518386636
C 	2.132620314	-3.575438911	0.875343425
C 	2.520658857	-2.829639766	-0.423313179
H 	1.055746121	-3.493195583	1.051254637
H 	2.654547013	-3.153318062	1.742140324
H 	2.394227041	-4.636226652	0.796284742
H 	1.992956331	-3.275545810	-1.274284627
H 	3.594664942	-2.927011285	-0.613513217
Ti	-0.577809067	0.373864715	-0.430600706
Cl	-2.002546485	2.120891400	-0.288370046
Cl	0.102926374	0.564020891	1.729840943
Cl	0.626601024	1.298536735	-2.117452658
Cl	-2.110293878	-1.174361871	-0.936297533
