19

C 	-2.24739400	-0.15275100	0.00153700
C 	-1.01534300	-0.65337200	0.00123100
C 	0.18143000	0.20692700	-0.00051000
O 	1.30594700	-0.21785300	0.00057100
H 	-2.42984400	0.91512500	-0.00171600
H 	-0.83081100	-1.72307000	0.00096900
C 	-4.73544600	-0.15264400	0.13618100
C 	-3.50045600	-1.04797000	-0.00281900
C 	-3.40593800	-2.01866200	1.17826300
C 	-3.54150500	-1.81671400	-1.32700900
H 	-2.64909100	-2.43441300	-1.43380700
H 	-5.64643400	-0.75350200	0.13704300
H 	-4.78627100	0.55344900	-0.69340200
H 	-4.69093000	0.41142400	1.06849300
H 	-4.27954900	-2.67198000	1.20842100
H 	-3.35225900	-1.46745400	2.11775600
H 	-2.51259000	-2.63775300	1.08873100
H 	-4.41892700	-2.46435400	-1.36728300
H 	-3.58410200	-1.12208900	-2.16667700
