19

C 	-2.15774200	-0.35821500	-0.23863600
C 	-0.99032400	-0.49468600	0.41524200
C 	0.15902800	0.36192900	0.09504800
O 	1.24733600	0.29931400	0.64211200
H 	-2.20081100	0.41390900	-1.01196100
H 	-0.83343600	-1.23074200	1.19984000
C 	-4.55603700	-0.10678300	0.30062600
C 	-3.44688400	-1.12620000	-0.06693200
C 	-3.36388800	-2.21330700	1.01760300
C 	-3.78911000	-1.77595600	-1.43135700
H 	-3.02396300	-2.50054200	-1.72644400
H 	-5.52463300	-0.61208400	0.37447200
H 	-4.64482400	0.67900100	-0.45639000
H 	-4.34834500	0.37235200	1.26215200
H 	-4.31975700	-2.74021700	1.09423100
H 	-3.14137900	-1.78683500	2.00026500
H 	-2.59493800	-2.95667200	0.78725300
H 	-4.74846600	-2.30016300	-1.37064600
H 	-3.86685000	-1.02571800	-2.22485800
