32

H 	2.102765009	0.326245605	-0.111272723
C 	0.000000000	0.000000000	0.000000000
C 	1.317369423	-0.415020378	0.000000000
C 	1.754291616	-1.778019765	0.000000000
O 	2.972216900	-2.076023814	-0.204468716
H 	-0.778409537	-0.733844430	0.199696795
H 	0.492003483	0.057689688	-2.694220959
H 	-1.334813139	0.347039368	-2.418849671
H 	-0.645821362	-1.382282585	-2.378547827
C 	-0.475350125	-0.311030311	-2.372409120
C 	1.443979276	-4.282240731	0.469051149
C 	0.776179720	-2.922483979	0.227475715
H 	2.083909679	-4.252150255	1.357297965
H 	2.071193270	-4.570725642	-0.379337112
H 	0.679833041	-5.053133177	0.617641463
H 	0.112658291	-2.660756442	1.062254959
H 	0.128479056	-2.972030213	-0.662710065
O 	-1.712763582	5.379718947	0.241566600
H 	-2.637493411	5.442859169	0.541436678
C 	-1.333238585	4.060416216	0.195374486
C 	-0.020562728	3.783324127	-0.224204869
C 	0.420124537	2.469333382	-0.292792642
C 	-0.431256488	1.393867444	0.052588996
C 	-1.749672866	1.694801860	0.452670685
C 	-2.199323653	3.009525237	0.534689353
H 	0.628675458	4.608293599	-0.505124680
H 	1.426639866	2.270916288	-0.651086541
H 	-2.427296767	0.882744909	0.709853190
H 	-3.218668299	3.222949543	0.854067771
Zn	4.425213273	-0.926889925	-1.088991783
Cl	6.355781781	-1.411629051	-0.280015977
Cl	3.466056035	0.360244123	-2.572464801
