32

H 	1.563036566	2.157765184	-0.882250138
C 	3.412238763	1.111431788	-0.720769008
C 	2.033810566	1.196476957	-0.700591423
C 	1.146158136	0.139086072	-0.322879875
O 	-0.091342481	0.357305691	-0.135988773
H 	3.876155074	0.131580825	-0.625892191
H 	3.061374641	2.170710019	1.781039558
H 	4.863210096	1.713487859	1.578188767
H 	3.609675289	0.405630120	2.008359602
C 	3.826308879	1.411375414	1.664519736
C 	0.541216423	-2.332243928	0.014757393
C 	1.651755568	-1.281833897	-0.114063936
H 	-0.076393825	-2.362299460	-0.889152453
H 	-0.118902951	-2.108054965	0.857589109
H 	0.980464057	-3.324099152	0.168244992
H 	2.336897368	-1.537967616	-0.932962346
H 	2.269865439	-1.271081613	0.798200434
O 	6.896777830	5.213729628	-2.441939943
H 	7.774273835	4.858481912	-2.671796047
C 	6.079711234	4.189712376	-2.028995060
C 	4.768025367	4.526014936	-1.651734484
C 	3.896338705	3.534697905	-1.224026482
C 	4.303692652	2.181738969	-1.158223822
C 	5.629771527	1.870658966	-1.523727140
C 	6.509657712	2.855361738	-1.963694417
H 	4.459674233	5.567502415	-1.686723030
H 	2.896728809	3.816399609	-0.904274748
H 	5.970004815	0.838248890	-1.467832358
H 	7.527832596	2.594666452	-2.250005246
Zn	-1.017876902	2.150192983	0.239746960
Cl	-3.021342423	2.132258462	-0.536341243
Cl	0.380892040	3.422909360	1.335660883
