18

H 	0.135312460	-1.478468710	1.009695650
C 	-0.857263280	-0.299974410	-0.481307020
C 	0.210928010	-0.715540650	0.238239950
C 	1.564354960	-0.196075710	0.064611860
H 	-0.684039520	0.470296280	-1.231923920
O 	2.560101720	-0.510538000	0.656013410
F 	1.643443830	0.793780080	-0.937640730
C 	-4.938005820	-1.568743880	-0.238586580
C 	-3.981363390	-2.168828080	0.594877090
C 	-2.646904980	-1.773994990	0.533753520
C 	-2.236158450	-0.764950140	-0.367522570
C 	-3.211793940	-0.173295220	-1.199943650
C 	-4.548809590	-0.568977750	-1.136529820
H 	-4.283278310	-2.947974050	1.291754700
H 	-1.920043500	-2.251426880	1.186517780
H 	-2.907481470	0.604380610	-1.898265020
H 	-5.284668810	-0.099527470	-1.786128280
H 	-5.978783260	-1.881866140	-0.186220730
