22

H 	-0.057361660	0.155960790	-0.133727820
C 	-0.064535340	-1.985963590	-0.109728290
C 	0.502005990	-0.767125460	0.003422760
C 	1.916699490	-0.635757270	0.321133460
O 	2.535726300	0.429427830	0.434641740
H 	0.577400320	-2.861007880	0.039280820
C 	-1.541523370	-3.183005900	-1.700170090
C 	-1.506677680	-2.308245290	-0.413685920
C 	-2.369769910	-1.045933110	-0.617376230
C 	-2.063508990	-3.141142760	0.777988590
H 	-2.048736180	-2.557300800	1.705705480
H 	-2.575354250	-3.479767600	-1.915590820
H 	-0.942749840	-4.094136470	-1.579028550
H 	-1.155166960	-2.627169740	-2.562648080
H 	-3.406506230	-1.334467440	-0.825891880
H 	-2.009898400	-0.446736140	-1.462220600
H 	-2.370443710	-0.411781780	0.277383590
H 	-3.099951160	-3.433829960	0.570384660
H 	-1.475098770	-4.053572300	0.934509940
H 	2.469446830	-1.589621510	0.473813390
I 	1.377792940	2.843656100	-0.111074450
I 	0.234776480	5.315726250	-0.705149260
