22

H 	-0.057361655	0.155960794	-0.133727823
C 	-0.064535342	-1.985963591	-0.109728292
C 	0.502005986	-0.767125461	0.003422758
C 	1.916699494	-0.635757272	0.321133464
O 	2.535726297	0.429427834	0.434641736
H 	0.577400317	-2.861007877	0.039280822
C 	-1.541523369	-3.183005897	-1.700170091
C 	-1.506677680	-2.308245289	-0.413685921
C 	-2.369769906	-1.045933112	-0.617376235
C 	-2.063508991	-3.141142761	0.777988587
H 	-2.048736183	-2.557300805	1.705705479
H 	-2.575354249	-3.479767598	-1.915590822
H 	-0.942749841	-4.094136467	-1.579028555
H 	-1.155166964	-2.627169738	-2.562648085
H 	-3.406506236	-1.334467440	-0.825891879
H 	-2.009898397	-0.446736139	-1.462220596
H 	-2.370443715	-0.411781777	0.277383586
H 	-3.099951162	-3.433829960	0.570384664
H 	-1.475098771	-4.053572301	0.934509941
H 	2.469446829	-1.589621513	0.473813392
I 	1.377792945	2.843656096	-0.111074452
I 	0.234776481	5.315726253	-0.705149258
