25

H 	  1.925052	  0.919425	 -0.003059
C 	  0.000000	  0.000000	  0.000000
C 	  1.350802	  0.000000	 -0.000000
C 	  2.067645	 -1.254442	 -0.000000
O 	  3.302090	 -1.406056	 -0.005863
H 	 -0.511577	 -0.967679	  0.001848
C 	 -0.140752	  2.531878	 -0.013975
C 	 -0.910990	  1.196640	 -0.005675
C 	 -1.807681	  1.109267	  1.263122
C 	 -1.811495	  1.095272	 -1.270477
H 	 -2.376220	  0.155452	 -1.283211
H 	 -0.848364	  3.368178	 -0.019997
H 	  0.494504	  2.621749	 -0.902448
H 	  0.493433	  2.633674	  0.873973
H 	 -2.525575	  1.937816	  1.261534
H 	 -1.204023	  1.176621	  2.174969
H 	 -2.371200	  0.169025	  1.289042
H 	 -2.528495	  1.924601	 -1.276813
H 	 -1.210696	  1.150793	 -2.184985
H 	  1.446600	 -2.171578	  0.005584
Sn	  5.126147	  0.247078	 -0.040500
Cl	  6.355036	 -1.763180	 -0.033201
Cl	  4.097457	  0.947756	  1.988183
Cl	  6.922896	  1.816389	 -0.076868
Cl	  4.052875	  0.906845	 -2.059328
