25

H 	2.469178321	0.855920618	-0.236524512
C 	4.196691788	-0.164599534	0.488328506
C 	2.884651603	-0.050953605	0.187829069
C 	1.993477359	-1.160580203	0.436877967
O 	0.769842420	-1.196067167	0.217025609
H 	4.543575188	-1.110779807	0.915567703
C 	4.724262447	2.189780173	-0.292041490
C 	5.266439178	0.876776091	0.306507912
C 	6.352304168	0.274658477	-0.631514556
C 	5.897594633	1.150264206	1.702127959
H 	6.297803090	0.230711645	2.145518357
H 	5.540419897	2.912322282	-0.401439855
H 	3.961206367	2.638786289	0.353829662
H 	4.283989414	2.026514400	-1.282247769
H 	7.178043399	0.987551868	-0.740175333
H 	5.940634736	0.068317230	-1.625674954
H 	6.758236533	-0.658748611	-0.223776079
H 	6.721730674	1.865625338	1.597377432
H 	5.157981510	1.573469987	2.390775949
H 	2.455212097	-2.070142393	0.868575894
Sn	-0.751264846	0.511318108	-0.695280383
Cl	-2.255907604	-1.262690747	-0.320711613
Cl	0.722086542	0.366433787	-2.558865696
Cl	-2.259183229	2.138838122	-1.572622396
Cl	0.030174887	1.744701479	1.183812908
