33

H 	1.600117970	1.921171840	0.563776570
C 	3.599920750	0.990947140	0.338706060
C 	2.091609020	0.973618440	0.350060240
C 	1.215935460	-0.024789280	-0.234963090
O 	0.142324240	0.315214320	-0.826283790
H 	3.980796290	0.024297240	-0.010539180
H 	5.297622540	1.426447320	1.639004690
H 	4.020122220	0.464763340	2.420573630
C 	4.212955800	1.289559070	1.724554240
H 	3.784602110	2.195821880	2.166253480
N 	1.553309160	-1.362047260	-0.186411500
C 	0.739008070	-2.323944440	-0.938776750
C 	2.408196810	-1.940354020	0.855359800
H 	0.317631610	-1.832305540	-1.816054730
H 	-0.086760210	-2.712890790	-0.324147410
H 	1.377556850	-3.161780720	-1.242832720
H 	3.281465960	-2.441775500	0.416701160
H 	1.834596570	-2.683684580	1.427412940
H 	2.742977130	-1.167094300	1.546149850
O 	4.334165980	4.914872380	-3.755546000
H 	3.969532920	4.568575400	-4.592515130
C 	4.231905310	3.935030750	-2.793598310
C 	4.234069190	4.343296230	-1.452554360
C 	4.082911580	3.398113980	-0.439939400
C 	3.944084980	2.030492750	-0.736950120
C 	3.976631640	1.637882480	-2.085659730
C 	4.128330580	2.571227410	-3.108777740
H 	4.323774740	5.402575440	-1.224613650
H 	4.055981660	3.740152920	0.591583320
H 	3.851650350	0.586560030	-2.340337770
H 	4.130955290	2.251547470	-4.149036220
I 	0.365595470	2.191016470	-2.649315000
I 	0.801092670	3.962336060	-4.785881990
