33

H 	1.589838812	1.924314060	0.622228706
C 	3.589472365	1.002614227	0.373116037
C 	2.083271209	0.982039524	0.392079667
C 	1.209553369	-0.008658702	-0.204748902
O 	0.125956937	0.336172209	-0.774021722
H 	3.972594024	0.033244934	0.036676973
H 	5.287792260	1.448958121	1.668392851
H 	4.001076030	0.508589851	2.460781429
C 	4.202363940	1.320699865	1.752580178
H 	3.778934916	2.236677547	2.178365782
N 	1.562068412	-1.342006820	-0.200309303
C 	0.766389816	-2.286314493	-0.990590724
C 	2.428243507	-1.942791215	0.816595958
H 	0.329438928	-1.765617984	-1.842910601
H 	-0.047138073	-2.722032792	-0.391817930
H 	1.421313030	-3.095024634	-1.335399460
H 	3.313334648	-2.406536624	0.360776200
H 	1.871140043	-2.721767648	1.355881582
H 	2.744160348	-1.191610061	1.539799676
O 	4.351899090	4.850771552	-3.786795689
H 	3.969600608	4.500308319	-4.613605926
C 	4.234024913	3.891606514	-2.806953029
C 	4.243891808	4.321319714	-1.472943874
C 	4.084346030	3.394177661	-0.445196438
C 	3.928876522	2.024696201	-0.719469257
C 	3.948291930	1.610714984	-2.062079374
C 	4.108003611	2.525594331	-3.099519069
H 	4.346621829	5.382460658	-1.261169173
H 	4.064857321	3.752273754	0.580564212
H 	3.808021135	0.557824296	-2.299637858
H 	4.101249654	2.191077959	-4.134662473
I 	0.342663675	2.205906372	-2.601587153
I 	0.782518064	3.965172250	-4.749019905
