24

H 	1.938255923	0.912895291	-0.001545270
C 	0.000000000	0.000000000	0.000000000
C 	1.352732245	-0.000000000	0.000000000
C 	2.050911422	-1.259936528	-0.000000000
O 	3.290552025	-1.431100475	-0.004919796
H 	-0.511276498	-0.967919684	0.002731396
C 	-1.821040254	1.085023532	-1.260655119
C 	-0.913809337	1.193063690	-0.001418773
C 	-0.152202688	2.532891174	-0.014522480
C 	-1.802566305	1.100252001	1.273737125
H 	-1.193604292	1.173186567	2.181522840
H 	-2.542511135	1.910287317	-1.263134791
H 	-2.380296534	0.141932690	-1.270077192
H 	-1.225808445	1.143964137	-2.178624034
H 	-0.865733776	3.364203253	-0.020900107
H 	0.480696883	2.624903210	-0.904318827
H 	0.483411489	2.641139575	0.871563881
H 	-2.525193026	1.924596976	1.274519605
H 	-2.360052516	0.156638537	1.304145014
H 	1.433875815	-2.173987427	0.005740789
B 	4.446975471	-0.119551607	-0.019830715
F 	4.141924553	0.581800413	1.127458431
F 	4.145957048	0.546453691	-1.188500278
F 	5.625937371	-0.795967821	-0.006656513
