24

H 	-0.235454190	0.354320280	-0.294817200
C 	-0.081952000	-1.770230330	-0.062734720
C 	0.373173270	-0.496272120	-0.006281670
C 	1.705976290	-0.245056590	0.479235430
O 	2.238251340	0.875008520	0.658923800
H 	0.593528600	-2.571153410	0.255563790
C 	-1.267247870	-3.315024360	-1.591573080
C 	-1.448582400	-2.230019080	-0.491288270
C 	-2.327230350	-1.079604310	-1.024146930
C 	-2.126907420	-2.879460660	0.753463350
H 	-2.271634800	-2.140448190	1.549431820
H 	-2.248722310	-3.708255000	-1.882574790
H 	-0.657766720	-4.152167480	-1.229449030
H 	-0.786184380	-2.895471650	-2.482570760
H 	-3.305915790	-1.470954540	-1.324217990
H 	-1.871006770	-0.601747000	-1.898963550
H 	-2.491939180	-0.312056430	-0.259658400
H 	-3.107809290	-3.276451800	0.464986410
H 	-1.526308960	-3.706613560	1.150911140
H 	2.326002300	-1.124016440	0.724923320
B 	1.400822090	2.387733620	0.397867020
F 	0.305735980	2.281598350	1.233720490
F 	1.093237570	2.353306520	-0.948151830
F 	2.348085930	3.291118770	0.771378960
