24

H 	-0.269017941	0.364922554	-0.226956425
C 	-0.122571424	-1.757969498	0.022240238
C 	0.329117985	-0.484404809	0.084643674
C 	1.658376203	-0.238647436	0.582207858
O 	2.222998830	0.872123771	0.698047154
H 	0.547796546	-2.555270113	0.358689561
C 	-1.217222545	-3.222889558	-1.632590007
C 	-1.465137168	-2.228699666	-0.461888685
C 	-2.371709970	-1.075097577	-0.933780683
C 	-2.143785132	-2.989673258	0.714921264
H 	-2.333245965	-2.317002638	1.558632066
H 	-2.175198275	-3.632768748	-1.972984258
H 	-0.580066951	-4.058262684	-1.318804748
H 	-0.736705973	-2.719610659	-2.478909099
H 	-3.330882291	-1.475850243	-1.279660457
H 	-1.917608616	-0.523208704	-1.764428775
H 	-2.575121457	-0.367604516	-0.122023654
H 	-3.102530970	-3.400669379	0.377840805
H 	-1.520034213	-3.820236963	1.065949192
H 	2.245473238	-1.117670953	0.896675141
B 	1.473516616	2.388048693	0.253135930
F 	0.345250571	2.425397908	1.044870652
F 	1.217582778	2.224971810	-1.091433702
F 	2.450877063	3.278155777	0.569584267
