29

H 	  1.915871	  0.937786	 -0.025584
C 	  0.000000	  0.000000	  0.000000
C 	  1.365887	  0.000000	  0.000000
C 	  2.199223	 -1.190882	  0.000000
O 	  3.448044	 -1.112218	 -0.021578
H 	 -0.523524	 -0.949810	  0.106188
H 	 -0.297714	  0.610232	 -2.775064
H 	 -1.285880	 -0.929349	 -2.409548
H 	  0.562606	 -1.027760	 -2.630918
C 	 -0.326235	 -0.429291	 -2.472876
C 	  1.568950	 -2.575360	  0.038201
H 	  0.853936	 -2.704088	 -0.783318
H 	  1.019862	 -2.716940	  0.977666
H 	  2.355251	 -3.329119	 -0.037149
C 	 -0.961246	  1.309128	  1.837137
C 	 -0.856816	  1.226564	  0.281379
C 	 -2.282859	  1.053472	 -0.290356
C 	 -0.231207	  2.532701	 -0.252272
H 	 -0.087051	  2.490696	 -1.337375
H 	 -1.600020	  2.155485	  2.117371
H 	  0.027277	  1.450950	  2.285990
H 	 -1.402422	  0.396100	  2.254941
H 	 -2.932375	  1.856821	  0.075987
H 	 -2.720916	  0.097394	  0.022896
H 	 -2.286387	  1.090462	 -1.383607
H 	 -0.894375	  3.376641	 -0.030367
H 	  0.737809	  2.743416	  0.211381
I 	  4.815139	  1.194475	 -0.122744
I 	  6.297363	  3.569048	 -0.234202
