29

H 	1.915871330	0.937786208	-0.025584082
C 	0.000000000	0.000000000	0.000000000
C 	1.365887299	0.000000000	0.000000000
C 	2.199223395	-1.190881796	-0.000000000
O 	3.448044460	-1.112218155	-0.021577859
H 	-0.523524280	-0.949810259	0.106187856
H 	-0.297713762	0.610232206	-2.775063732
H 	-1.285879897	-0.929349246	-2.409547625
H 	0.562605504	-1.027760386	-2.630917675
C 	-0.326234935	-0.429290596	-2.472875633
C 	1.568950498	-2.575359960	0.038200890
H 	0.853935632	-2.704088418	-0.783317593
H 	1.019862404	-2.716939547	0.977665731
H 	2.355250957	-3.329119228	-0.037149035
C 	-0.961246386	1.309127959	1.837136925
C 	-0.856816368	1.226563593	0.281379444
C 	-2.282858660	1.053472093	-0.290355954
C 	-0.231206788	2.532701406	-0.252272379
H 	-0.087050856	2.490695875	-1.337374775
H 	-1.600019863	2.155484516	2.117370592
H 	0.027277413	1.450949696	2.285990334
H 	-1.402422164	0.396100266	2.254941427
H 	-2.932374707	1.856821250	0.075987180
H 	-2.720916116	0.097393744	0.022895740
H 	-2.286387191	1.090462391	-1.383606623
H 	-0.894375014	3.376640610	-0.030366665
H 	0.737808715	2.743416080	0.211381261
I 	4.815139212	1.194475008	-0.122744070
I 	6.297362536	3.569048165	-0.234201943
