29

H 	1.583055100	2.157134470	-0.342592740
C 	3.425890840	1.081786170	-0.409251930
C 	2.070242160	1.187423890	-0.271611900
C 	1.176443120	0.086246270	0.051919690
O 	-0.036357440	0.283294200	0.293230620
H 	3.880210400	0.091149720	-0.388983960
H 	3.954159420	2.141925360	2.188792900
H 	4.893577320	0.538582590	2.017254800
H 	3.065181580	0.524731800	2.380632220
C 	3.947194270	1.066237330	2.059905680
C 	1.701842110	-1.342102560	0.104391360
H 	2.484316270	-1.435221140	0.869130010
H 	2.147400380	-1.627124920	-0.857005880
H 	0.879472260	-2.019809250	0.343341040
C 	4.347369090	1.911896170	-2.524310160
C 	4.320569210	2.171823050	-0.984521920
C 	5.767968690	2.052662830	-0.449694210
C 	3.780297980	3.593149740	-0.718780790
H 	3.668648950	3.781675890	0.355113190
H 	4.999099940	2.649584790	-3.009181830
H 	3.342088070	1.997417070	-2.950931860
H 	4.736291870	0.911538740	-2.752035300
H 	6.432750760	2.712120710	-1.020090880
H 	6.144963300	1.026648500	-0.550017530
H 	5.832001850	2.340378270	0.604152950
H 	4.478269860	4.335374710	-1.123729610
H 	2.808203770	3.758091650	-1.195572660
I 	-1.086980300	2.745070200	0.663009950
I 	-2.203613200	5.265559370	1.140438470
