34

H 	2.006797078	0.855441486	0.450063276
C 	0.000000000	0.000000000	0.000000000
C 	1.505137759	0.000000000	0.000000000
C 	2.298795015	-1.224379153	0.000000000
O 	3.146442872	-1.433361514	0.929505558
H 	-0.387414840	-0.702469527	-0.748078983
H 	-1.679487046	1.372298510	-0.203746624
H 	-0.310858051	1.733794008	-1.284434407
C 	-0.586864983	1.395603880	-0.278553185
H 	-0.210638605	2.132115233	0.438990786
N 	2.112056386	-2.182533238	-0.947406843
C 	2.774004646	-3.485971939	-0.803745652
C 	1.467405330	-1.920747027	-2.236802182
H 	2.984174039	-3.668882025	0.250117379
H 	3.717401620	-3.510436570	-1.366320230
H 	2.108029049	-4.262415712	-1.196544658
H 	0.545799926	-2.507948443	-2.342622637
H 	2.152661311	-2.202186038	-3.046807942
H 	1.238487070	-0.858738930	-2.332351253
O 	-1.717228176	-3.697177963	2.858091200
H 	-1.804222039	-4.106608273	1.979321923
C 	-1.195181206	-2.427979673	2.719395315
C 	-0.960714067	-1.697984572	3.891826834
C 	-0.436313167	-0.410177600	3.797569466
C 	-0.142258977	0.158773008	2.553594808
C 	-0.386485175	-0.570291416	1.376272852
C 	-0.901764648	-1.870111880	1.468210834
H 	-1.169592108	-2.156665843	4.853858424
H 	-0.230147706	0.151241044	4.705195051
H 	-1.081262565	-2.449088077	0.561691438
H 	0.287938487	1.153658975	2.506972501
Zn	2.987527617	-0.680326285	2.848194994
Cl	2.753832871	-2.410872871	4.117562934
Cl	3.286632717	1.474470147	2.853947751
