34

H 	1.492353170	1.896347680	1.104458800
C 	3.525683260	1.131303610	0.610190360
C 	2.026569310	1.035668380	0.703565430
C 	1.220728970	0.182317460	-0.164122240
O 	0.283721760	0.691054670	-0.865676390
H 	3.963873570	0.139097260	0.445686250
H 	5.237496670	1.872038690	1.738461620
H 	3.978612030	1.113374310	2.745839220
C 	4.156501810	1.752522570	1.872287880
H 	3.727064290	2.738157560	2.082136490
N 	1.486557830	-1.148223820	-0.280131450
C 	0.785638410	-1.944045630	-1.298035240
C 	2.249633290	-1.904309730	0.718600200
H 	0.479124510	-1.292610600	-2.117067710
H 	-0.104887220	-2.427372560	-0.872122680
H 	1.467218390	-2.719347110	-1.666067170
H 	3.154617160	-2.338270940	0.273575340
H 	1.627126740	-2.721653600	1.106812700
H 	2.524387620	-1.255097040	1.551113990
O 	5.107075680	1.469078640	-4.106072200
H 	5.277299990	0.524602720	-3.940664740
C 	4.549872810	2.036876410	-2.978385370
C 	4.190565240	3.389382470	-3.055279800
C 	3.627578340	4.008470910	-1.940694720
C 	3.420422250	3.300471150	-0.751681630
C 	3.792020560	1.945946110	-0.670054630
C 	4.344382750	1.315928920	-1.794028170
H 	4.335884160	3.923678330	-3.990115930
H 	3.324238300	5.050825740	-2.003167250
H 	4.622923260	0.262395440	-1.744676340
H 	2.960838040	3.799276580	0.095685930
Zn	0.325719220	2.651924650	-1.533303670
Cl	0.633926350	2.504814780	-3.666325360
Cl	-0.100175620	4.013392370	0.108106910
