26

H 	2.093340174	-0.814018267	-0.025622900
C 	0.000000000	0.000000000	0.000000000
C 	1.040592580	-1.081036417	0.000000000
C 	0.771565807	-2.505675662	0.000000000
O 	1.678442339	-3.361537116	-0.196102574
H 	-0.689437650	-0.198942401	-0.838057094
H 	-0.136201931	2.163699154	-0.267738441
H 	1.207527935	1.406469045	-1.158235608
C 	0.637749868	1.390615525	-0.222260408
H 	1.318115733	1.637024629	0.601071588
N 	-0.523353492	-2.930228950	0.185093694
H 	-1.200244857	-2.324039245	0.636534036
H 	-0.658605489	-3.931565355	0.272215622
C 	-2.421602617	-0.034123614	3.613554564
C 	-1.024532881	-0.067592873	3.701774267
C 	-0.247216246	-0.062681882	2.541423856
C 	-0.853888643	-0.020830785	1.275046598
C 	-2.254053815	0.011416170	1.195951615
C 	-3.034976276	0.007009771	2.357842952
H 	-0.540936436	-0.100765799	4.675659157
H 	0.837851471	-0.095439887	2.616249656
H 	-2.734960687	0.045938524	0.219351296
H 	-4.119678595	0.036904020	2.280027682
H 	-3.026319035	-0.039623673	4.517372527
I 	3.855206469	-2.706134310	-1.593919845
I 	6.099049548	-2.078134655	-3.136762356
