65

C 	-3.994112003	0.494634547	2.756786649
C 	-3.195077500	0.858180380	-0.044077786
C 	-0.922137877	-0.700692627	-0.823069420
O 	-0.642202769	-1.767427132	-2.845776611
H 	6.178832710	-10.908755349	-7.784569186
H 	-2.249638525	0.526747117	3.880818595
H 	-4.740425586	0.507506454	-1.372257658
H 	13.890426153	-0.085864450	-1.057452794
H 	12.030167662	-2.572898080	0.218362295
H 	4.589567842	-9.503395189	-5.197082288
H 	13.352950948	-2.876149027	-2.846735969
C 	-5.256443083	-2.095594835	3.195237465
H 	-7.015091435	-2.273314960	2.119110322
H 	7.900119759	-9.178569296	-5.516354143
H 	-5.713918585	-2.350667006	5.196511799
H 	-4.009588275	-3.647326151	2.623450333
N 	8.233139694	-2.283686060	-3.383108065
C 	8.326817367	-3.562171558	-5.699171370
N 	6.003831164	-4.590918751	-6.376668610
C 	10.145207275	-0.346090962	-2.718507733
H 	6.470622486	-1.806233243	-2.813589946
C 	5.816643946	-6.774710808	-8.085406952
H 	4.681250740	-4.580943151	-4.993254085
H 	10.747187809	0.589860870	-4.466664175
C 	6.120172172	-9.241578925	-6.566492147
C 	12.499749297	-1.549433844	-1.516060052
H 	9.059468645	4.576591187	-3.847409900
H 	7.446456213	-6.604214728	-9.344786695
C 	8.885440913	1.630687437	-1.036279263
C 	8.079113352	1.053743809	1.426446991
C 	6.885471379	2.867282904	2.925430174
C 	6.476627941	5.303650067	1.995712151
C 	7.270278804	5.905517028	-0.446072686
C 	8.457714803	4.083059976	-1.942973845
H 	8.386290960	-0.827513583	2.194079386
H 	6.287644671	2.379549750	4.833582356
H 	5.555414934	6.721281372	3.167844203
H 	6.964748035	7.798034089	-1.192065714
C 	3.384663990	-6.594508717	-9.789372262
C 	3.332495587	-8.848968046	-11.643807959
H 	1.809734415	-8.592738040	-13.022063211
H 	2.989078833	-10.648475962	-10.685856351
H 	5.107393146	-9.011195988	-12.698962865
C 	3.503630526	-4.128842352	-11.346593327
H 	5.192200842	-4.076377262	-12.543269009
H 	1.847723125	-3.977322807	-12.580438713
H 	3.544385210	-2.462817263	-10.126683103
C 	0.913733150	-6.607862618	-8.232200840
H 	0.749601819	-8.284926750	-7.031413794
H 	-0.718095379	-6.619369746	-9.507365617
H 	0.713895576	-4.932249493	-7.038867743
H 	-2.598211075	2.835750726	-0.305946244
C 	-8.634728832	6.601230851	5.740809992
C 	-9.421317089	5.268285033	3.602526320
C 	-7.936957211	3.319433309	2.623356394
C 	-5.626969413	2.657819311	3.749617367
C 	-4.864891339	4.017964845	5.894168240
C 	-6.346118391	5.966318362	6.884977461
H 	-11.203834024	5.744922811	2.692525492
H 	-8.606324302	2.309356289	0.963040640
H 	-3.085741348	3.546135607	6.815675497
H 	-5.708504500	6.986006358	8.554040039
H 	-9.795164594	8.117152934	6.506168178
H 	0.622126866	-0.766034178	0.621636180
O 	10.263457946	-3.743039060	-6.981663409
