24

H 	  1.952535	  0.905423	  0.003216
C 	  0.000000	  0.000000	  0.000000
C 	  1.355070	  0.000000	  0.000000
C 	  2.049871	 -1.257021	 -0.000000
O 	  3.285500	 -1.422284	 -0.007742
H 	 -0.499246	 -0.972626	  0.001048
C 	 -1.829575	  1.044806	 -1.264965
C 	 -0.935444	  1.174205	 -0.001673
C 	 -0.213235	  2.531211	 -0.004721
C 	 -1.826908	  1.048939	  1.264064
H 	 -1.230940	  1.129759	  2.177695
H 	 -2.570853	  1.849678	 -1.272378
H 	 -2.367496	  0.091886	 -1.284712
H 	 -1.235484	  1.121552	 -2.180181
H 	 -0.946891	  3.342138	 -0.005060
H 	  0.415277	  2.654251	 -0.891293
H 	  0.418111	  2.657235	  0.879364
H 	 -2.568746	  1.853299	  1.269744
H 	 -2.364073	  0.095719	  1.288574
H 	  1.435448	 -2.173219	  0.007547
Al	  4.860545	 -0.317080	 -0.073427
F 	  4.271354	  1.239686	  0.201190
F 	  5.387142	 -0.591241	 -1.638937
F 	  5.778434	 -0.951630	  1.171892
