24

H 	-0.302947033	0.133308509	-0.373546792
C 	-0.184159741	-1.998943968	-0.105996832
C 	0.296535524	-0.732012795	-0.111620410
C 	1.668326821	-0.507751648	0.249965441
O 	2.256687985	0.590761098	0.285345797
H 	0.509177432	-2.794720220	0.179087970
C 	-1.427378329	-3.490785861	-1.611956435
C 	-1.566726902	-2.476396620	-0.444172736
C 	-2.524537272	-1.342307914	-0.843546929
C 	-2.112170281	-3.217373926	0.807199893
H 	-2.219500352	-2.535456150	1.655669505
H 	-2.408882768	-3.912288440	-1.849345495
H 	-0.759794610	-4.318269756	-1.352326788
H 	-1.038518119	-3.006903381	-2.512566862
H 	-3.510666420	-1.753880990	-1.075952213
H 	-2.172634964	-0.807525142	-1.730309394
H 	-2.651818047	-0.615166012	-0.036607845
H 	-3.096944437	-3.638177673	0.582492879
H 	-1.455984542	-4.039536269	1.109269681
H 	2.268537510	-1.391426655	0.525387232
Al	1.843722677	2.430336323	-0.104504160
F 	0.166995381	2.435508175	-0.290620555
F 	2.698155528	2.663074394	-1.525442916
F 	2.401557531	3.206519080	1.267485203
