28

H 	0.482822494	-2.700854118	0.623377487
C 	-2.214240344	0.068781318	2.200472172
C 	-0.668137511	-1.101818836	0.001333286
C 	1.013236667	0.785348950	-1.327679126
O 	3.260266817	0.536833638	-1.692724864
H 	-3.105774324	1.787940987	1.456370280
H 	-2.001009932	-1.792391029	-1.437304963
H 	0.496140327	-0.740750620	5.233150243
C 	-0.509196618	0.872554657	4.418974674
H 	0.910454899	2.249467969	3.811591471
H 	-1.635616068	1.738856497	5.920548764
C 	-8.398283652	-4.784535900	4.586155042
C 	-8.875197682	-2.391618434	3.592677784
C 	-6.873243206	-0.852797817	2.828932330
C 	-4.359612914	-1.659257729	3.036852642
C 	-3.912215190	-4.071389743	4.042655958
C 	-5.905132708	-5.616813708	4.806643470
H 	-10.807572367	-1.714496445	3.410273976
H 	-7.276911686	1.011306443	2.058625217
H 	-1.990066619	-4.768112623	4.240948877
H 	-5.506996830	-7.479712442	5.579431304
H 	-9.951196778	-5.990330498	5.183779470
H 	0.011469982	2.516203712	-2.021606039
Ti	13.195368547	-3.942097542	-6.473506008
Cl	9.753521910	-2.247512304	-4.982373747
Cl	12.608502671	-5.003410035	-10.423942105
Cl	14.140969043	-7.308689920	-4.271126809
Cl	16.293924519	-1.220235074	-6.225951537
