31

H	 2.49467187	 0.59752872	 0.11809962
C	 4.34312134	-0.42304305	 0.06161598
C	 3.00653226	-0.36428963	 0.06479932
C	 2.14028189	-1.56026068	-0.00000000
O	 0.91945275	-1.56026068	-0.00000000
H	 4.85992749	-1.37634434	 0.01106507
C	 5.20049168	 0.85433733	 0.13100955
C	 6.64538661	 0.49914964	-0.08082816
C	 7.05493529	-0.15913583	-1.35130484
C	 8.34223861	-0.48488921	-1.56023729
C	 9.36055714	-0.18930290	-0.52449373
C	 8.99755217	 0.40469607	 0.62444562
C	 7.57743220	 0.76590124	 0.85893393
H	 4.87132107	 1.55410549	-0.66561662
H	 5.03420524	 1.33843090	 1.11750318
H	 6.31344440	-0.37812115	-2.11363172
H	 8.63902421	-0.96486984	-2.48729839
H	 10.39905663	-0.45389347	-0.69694609
H	 9.74187707	 0.62180252	 1.38379071
H	 7.30505038	 1.24543182	 1.79446257
C	 1.93174390	-4.05762162	 0.20968288
C	 2.90321574	-2.89611310	-0.07092436
H	 1.14325447	-4.05374536	-0.52833432
H	 1.50389689	-3.93923074	 1.19422873
H	 2.46678842	-4.99445318	 0.15994372
H	 3.33106275	-3.01450398	-1.05547021
H	 3.69170517	-2.89998936	 0.66709284
Al	-0.60364067	 1.02434498	-0.00000000
F	 0.20537916	 1.50109577	-1.31700720
F	-0.02551654	 1.36503025	 1.47173992
F	-1.99078466	 0.20690892	-0.15473272
