26

H 	-1.522216418	-1.500849770	-0.019926230
C 	0.000000000	0.000000000	0.000000000
C 	-1.290112755	-0.437291919	-0.000000000
C 	-2.479172574	0.378980527	-0.000000000
O 	-3.630298574	0.004949832	0.002686012
H 	0.175291155	1.069956626	0.094022321
H 	0.381097380	-0.401998740	-2.858948777
H 	0.962915962	1.317159413	-2.412910705
H 	-0.858731264	0.960848410	-2.557363332
C 	0.158867532	0.596279289	-2.501473916
Br	-2.178347629	2.401424057	-0.011049375
C 	1.349167572	-0.940856091	1.810667202
C 	1.199689151	-0.894173717	0.255898942
C 	2.487156876	-0.276087596	-0.336583007
C 	1.011994475	-2.328841517	-0.281160059
H 	0.837331824	-2.326708123	-1.362807048
H 	2.229672641	-1.539718452	2.072747132
H 	0.465390006	-1.392167196	2.273332546
H 	1.481376643	0.064336143	2.227563580
H 	3.362943857	-0.834356642	0.013560378
H 	2.604412272	0.768618532	-0.023759032
H 	2.481132786	-0.309150086	-1.429854296
H 	1.914947335	-2.917573331	-0.083700370
H 	0.172701202	-2.842167078	0.199743977
I 	-4.243188283	-2.774506115	-0.240845463
I 	-4.717529740	-5.484927446	-0.520944207
