26

H 	 -1.522216	 -1.500850	 -0.019926
C 	  0.000000	  0.000000	  0.000000
C 	 -1.290113	 -0.437292	  0.000000
C 	 -2.479173	  0.378981	  0.000000
O 	 -3.630299	  0.004950	  0.002686
H 	  0.175291	  1.069957	  0.094022
H 	  0.381097	 -0.401999	 -2.858949
H 	  0.962916	  1.317159	 -2.412911
H 	 -0.858731	  0.960848	 -2.557363
C 	  0.158868	  0.596279	 -2.501474
Br	 -2.178348	  2.401424	 -0.011049
C 	  1.349168	 -0.940856	  1.810667
C 	  1.199689	 -0.894174	  0.255899
C 	  2.487157	 -0.276088	 -0.336583
C 	  1.011994	 -2.328842	 -0.281160
H 	  0.837332	 -2.326708	 -1.362807
H 	  2.229673	 -1.539718	  2.072747
H 	  0.465390	 -1.392167	  2.273333
H 	  1.481377	  0.064336	  2.227564
H 	  3.362944	 -0.834357	  0.013560
H 	  2.604412	  0.768619	 -0.023759
H 	  2.481133	 -0.309150	 -1.429854
H 	  1.914947	 -2.917573	 -0.083700
H 	  0.172701	 -2.842167	  0.199744
I 	 -4.243188	 -2.774506	 -0.240845
I 	 -4.717530	 -5.484927	 -0.520944
