26

H 	1.616293060	2.303675940	0.093394840
C 	3.356140770	1.118851610	-0.284995330
C 	2.047709780	1.304738100	0.052644210
C 	1.081297150	0.283384650	0.375180460
O 	-0.098663190	0.428924680	0.607455770
H 	3.712712810	0.097048760	-0.404927180
H 	4.265429750	1.764207430	2.385541170
H 	5.236860120	0.282125920	1.792562230
H 	3.471317430	0.072872890	2.346211290
C 	4.288352070	0.727244150	2.070693680
Br	1.795993880	-1.628012180	0.452445740
C 	3.967076250	2.156157470	-2.418371900
C 	4.237665460	2.205775340	-0.879482050
C 	5.735899350	1.901790880	-0.639613380
C 	3.898997110	3.616002280	-0.348606400
H 	4.009464470	3.664931150	0.741019180
H 	4.598243120	2.899345250	-2.921301900
H 	2.917623750	2.379284190	-2.636916300
H 	4.204366470	1.168608330	-2.831918790
H 	6.353688410	2.580560070	-1.239197960
H 	5.983423880	0.873212830	-0.929246320
H 	6.007662020	2.039397010	0.411591360
H 	4.580267650	4.351312550	-0.792452320
H 	2.877468990	3.917083650	-0.604788440
I 	-1.362986920	2.878433860	-0.135405510
I 	-2.526666770	5.243001980	-0.966230870
