26

H 	1.561829536	2.208238839	-0.250946195
C 	3.379299199	1.088434497	-0.364665884
C 	2.036543340	1.230650239	-0.184675531
C 	1.091237822	0.187027582	0.127435327
O 	-0.103385050	0.297937183	0.287349351
H 	3.790093246	0.080665536	-0.359732377
H 	4.070688867	2.010605954	2.309657664
H 	4.975216863	0.409620396	1.975529058
H 	3.163160965	0.381697395	2.402022244
C 	4.043964209	0.944208862	2.120405347
Br	1.866315202	-1.694594556	0.326555282
C 	4.181065330	2.000169904	-2.488315728
C 	4.278352585	2.168910192	-0.937867634
C 	5.749375504	1.945706261	-0.517260889
C 	3.833639371	3.595475624	-0.551765858
H 	3.826235563	3.726813315	0.535969126
H 	4.843718584	2.726115459	-2.974633432
H 	3.156547107	2.170570966	-2.834912915
H 	4.487329580	0.994379810	-2.798608733
H 	6.404231075	2.617586672	-1.083836964
H 	6.066126701	0.915083233	-0.718515485
H 	5.897069311	2.149271437	0.547219871
H 	4.529800743	4.326743654	-0.977824255
H 	2.834248623	3.832358563	-0.931620604
I 	-1.321781180	2.881656695	0.302218624
I 	-2.385286229	5.434625080	0.336105871
