62

C 	-1.815340270	-0.380966452	1.859819744
C 	-0.510257203	-0.722567464	1.890360100
C 	0.045069055	-1.980269810	2.429667711
O 	1.160621517	-2.401000907	2.062404519
H 	-0.878378250	0.090611981	-1.210667589
H 	-2.556384727	-1.070703490	2.269175320
H 	0.235761546	-0.094938033	1.416605849
C 	-1.799204279	-2.539528109	-1.337295723
H 	-1.699524229	-3.619890977	-1.495654838
H 	-2.869181179	-2.297452001	-1.363752884
H 	-1.430446657	-2.299136010	-0.334910513
H 	2.007230443	-3.533125120	-2.664028273
H 	0.531611858	-4.150390053	-1.899265851
H 	0.546171011	-3.787442749	-3.634651748
H 	5.189698697	1.104291112	1.849698631
H 	4.237935275	-0.261235326	2.461666453
H 	5.247397525	-0.473896180	1.019078406
N 	2.655388804	-0.523972389	0.252591952
C 	1.984162617	-0.555690447	-0.961592910
N 	1.079025372	-1.599723949	-1.067253118
C 	3.435723498	0.657223219	0.640615477
H 	2.319287490	-1.144307350	0.992495513
C 	0.501985028	-2.004426587	-2.355318352
H 	1.074806320	-2.278789435	-0.311620939
H 	3.839577553	1.061163172	-0.292546227
C 	0.914452067	-3.456872037	-2.658718062
C 	4.599395765	0.231112670	1.550575084
H 	2.605044092	2.983940626	-0.492945440
H 	0.965402621	-1.343935020	-3.096816369
C 	2.557521306	1.745094620	1.265730355
C 	2.040710219	1.618575485	2.565687842
C 	1.231920660	2.617337566	3.115628414
C 	0.929060517	3.765263113	2.373773979
C 	1.430716448	3.898026797	1.075348714
C 	2.232797898	2.891689304	0.524867310
H 	2.268360209	0.732751524	3.155080285
H 	0.837764116	2.500738407	4.123203737
H 	0.299358911	4.542418553	2.801111831
H 	1.194251145	4.782783567	0.487380734
C 	-1.044225976	-1.729074866	-2.413700276
C 	-1.586241289	-2.098159249	-3.813392352
H 	-2.631198060	-1.777249094	-3.908751087
H 	-1.554397898	-3.177669980	-3.998197118
H 	-1.009981938	-1.597970851	-4.602709396
C 	-1.279455607	-0.221581972	-2.176410944
H 	-0.785623605	0.378631926	-2.949140404
H 	-2.352277697	0.007380203	-2.188975992
O 	2.179467735	0.269375319	-1.864584735
N 	-0.710407926	-2.695420147	3.324675724
H 	-1.507050045	-2.283359044	3.791522316
H 	-0.296366995	-3.528971793	3.724841353
C 	-3.532634397	3.070811502	0.005876471
C 	-2.140266355	2.974741158	0.137676045
C 	-1.565333844	1.865660626	0.749927159
C 	-2.374539443	0.822012271	1.247702237
C 	-3.774477236	0.937223482	1.119981184
C 	-4.349396139	2.048458577	0.501631631
H 	-1.498513838	3.766399731	-0.240811637
H 	-0.486098014	1.813204797	0.839233636
H 	-4.409837579	0.138744381	1.500055772
H 	-5.430727893	2.116763649	0.404561645
H 	-3.976733331	3.937385580	-0.478913063
