34

H 	1.623266581	2.148745457	0.047784301
C 	3.401144728	1.055216696	-0.350084591
C 	2.055525862	1.158835699	-0.072038697
C 	1.023691853	0.134909629	-0.057994287
O 	-0.197855808	0.509496304	-0.236642992
H 	3.827517849	0.085748498	-0.592264366
H 	4.496714726	2.094567736	1.884598291
H 	5.268406604	0.437910835	1.565794941
H 	3.633159167	0.556836597	2.449351145
C 	4.388571617	1.018716444	1.822811839
N 	1.229285031	-1.195277097	0.092054998
C 	0.107158796	-2.128153859	-0.120165907
C 	2.471853547	-1.807594438	0.570515489
H 	-0.618632647	-1.684603089	-0.800289627
H 	-0.390882307	-2.355707494	0.831494190
H 	0.506392868	-3.053937842	-0.546514818
H 	3.025968848	-2.274384007	-0.255228547
H 	2.217801235	-2.586588285	1.297989151
H 	3.100948492	-1.069805891	1.061537941
C 	5.533777222	1.937811437	-1.259026015
C 	6.357059665	2.976491469	-1.696754192
C 	5.899345400	4.297254899	-1.675179408
C 	4.603301904	4.534142598	-1.216953239
C 	3.757952158	3.523624397	-0.780850233
C 	4.228899905	2.195297387	-0.793603375
H 	5.900982429	0.913822182	-1.275722698
H 	7.359737727	2.760635063	-2.057393898
H 	6.515631098	5.126830191	-2.009904030
F 	4.144101446	5.821336404	-1.202091783
H 	2.752623134	3.781121318	-0.460225258
Al	-0.934772776	2.057904037	-0.948964050
F 	-2.566341368	1.927618267	-0.583094907
F 	-0.532814014	1.967999085	-2.582585074
F 	-0.129493223	3.329000832	-0.161114084
