26

H 	  1.965103	  0.919216	  0.011974
C 	  0.000000	  0.000000	  0.000000
C 	  1.386688	  0.000000	  0.000000
C 	  2.113324	 -1.215484	  0.000000
O 	  3.373483	 -1.254083	  0.014479
H 	 -0.482795	 -0.968680	  0.120244
H 	 -0.032340	  0.619596	 -2.710341
H 	 -1.593078	 -0.281464	 -2.261616
H 	 -0.013410	 -1.227689	 -2.524430
C 	 -0.513344	 -0.281943	 -2.350817
H 	  1.556952	 -2.164996	 -0.004780
C 	 -2.584448	  3.296605	  0.868985
C 	 -1.271657	  3.543461	  0.456804
C 	 -0.418672	  2.487671	  0.157485
C 	 -0.862417	  1.154064	  0.260172
C 	 -2.191752	  0.924026	  0.668065
C 	 -3.040937	  1.981838	  0.976081
H 	 -0.912612	  4.565829	  0.369586
H 	  0.594947	  2.705410	 -0.164692
H 	 -2.554239	 -0.097721	  0.755770
H 	 -4.059222	  1.781111	  1.299245
H 	 -3.246954	  4.125853	  1.104185
Al	  4.456562	 -2.828437	 -0.001347
F 	  3.279623	 -4.038319	 -0.047522
F 	  5.315695	 -2.728651	  1.433579
F 	  5.342483	 -2.658216	 -1.414485
