26

H 	0.449801300	-1.690255720	-0.581406930
C 	-0.835924810	0.017655700	-0.206924250
C 	0.382186490	-0.621291350	-0.401836040
C 	1.600637610	0.101730720	-0.377190860
O 	2.729654680	-0.440995400	-0.551241080
H 	-0.807133930	1.104996120	-0.146402120
H 	-1.188469770	-0.946234610	2.361093510
H 	-1.858460740	0.780491330	2.257361720
H 	-0.029509240	0.502724360	2.440684130
C 	-1.009257880	0.109626490	2.195653020
H 	1.556265680	1.189302130	-0.210283820
C 	-4.764115480	-1.521770620	-0.955271310
C 	-3.675837430	-2.397149080	-0.926710850
C 	-2.393948580	-1.919218750	-0.681985240
C 	-2.167327800	-0.547064790	-0.455050500
C 	-3.278218360	0.321002730	-0.488807800
C 	-4.559271370	-0.158526750	-0.737957320
H 	-3.829028220	-3.459935530	-1.097639920
H 	-1.568041510	-2.623169300	-0.664154300
H 	-3.131156450	1.385477230	-0.319083270
H 	-5.400135680	0.530496240	-0.760693920
H 	-5.765398640	-1.901156590	-1.145438730
Al	4.401860260	0.506867250	-0.437952410
F 	3.918059700	2.078176040	-0.840430190
F 	5.393227810	-0.264335010	-1.550830420
F 	4.802930450	0.322251880	1.188892640
