26

H 	0.850001268	-3.194120391	-1.098699865
C 	-1.579668952	0.033364438	-0.391030161
C 	0.722227795	-1.174070495	-0.759360063
C 	3.024766708	0.192243199	-0.712787422
O 	5.158299760	-0.833360528	-1.041694670
H 	-1.525262074	2.088140036	-0.276659911
H 	-2.245882373	-1.788124263	4.461820089
H 	-3.511981812	1.474914856	4.265795415
H 	-0.055764382	0.950011357	4.612224562
C 	-1.907220982	0.207164042	4.149182873
H 	2.940915912	2.247455305	-0.397378828
C 	-9.002873483	-2.875729696	-1.805201151
C 	-6.946326021	-4.529955241	-1.751229703
C 	-4.523907173	-3.626797811	-1.288765325
C 	-4.095655964	-1.033802626	-0.859920818
C 	-6.194934877	0.606607245	-0.923712870
C 	-8.615774217	-0.299572141	-1.394537226
H 	-7.235814659	-6.538330561	-2.074238832
H 	-2.963169006	-4.957071556	-1.255069731
H 	-5.917028144	2.618172517	-0.602979991
H 	-10.204777471	1.002492604	-1.437503173
H 	-10.895024429	-3.592665275	-2.164565492
Al	8.318310330	0.957840284	-0.827610111
F 	7.404059773	3.927183554	-1.588182886
F 	10.191723489	-0.499520774	-2.930644760
F 	9.076223146	0.608967796	2.246681481
