26

H 	0.438365681	-1.672613918	-0.535980370
C 	-0.854517840	0.030869247	-0.170840746
C 	0.364410778	-0.604400147	-0.354007754
C 	1.576568393	0.127236306	-0.326003525
O 	2.701486246	-0.414062033	-0.502796338
H 	-0.830201712	1.118693604	-0.126816533
H 	-0.988363886	-0.908876560	2.442558375
H 	-1.966134019	0.663475834	2.298196244
H 	-0.113049829	0.728560720	2.445185995
C 	-1.010648136	0.155690388	2.243573807
H 	1.535785962	1.212979127	-0.150944902
C 	-4.741461063	-1.540246614	-1.022529597
C 	-3.675528342	-2.420502707	-0.814715379
C 	-2.407007315	-1.932100062	-0.524569391
C 	-2.174993430	-0.545230435	-0.431167272
C 	-3.263107841	0.327223376	-0.634283553
C 	-4.529842037	-0.163368932	-0.933713236
H 	-3.836228064	-3.493634697	-0.880433133
H 	-1.596521543	-2.636119909	-0.363009997
H 	-3.105760103	1.401463265	-0.568654884
H 	-5.352523298	0.528039131	-1.097365780
H 	-5.731251201	-1.927250655	-1.251508131
Al	4.397360182	0.466174580	-0.469663182
F 	3.936774963	2.057951972	-0.145261548
F 	5.006536102	0.203276782	-2.008126728
F 	5.193239442	-0.303532943	0.789271300
