33

H 	2.114825447	0.673731463	0.064509436
C 	0.000000000	0.000000000	0.000000000
C 	1.482238031	-0.206075496	-0.000000000
C 	2.142402657	-1.473395164	0.000000000
O 	3.407775381	-1.566324517	0.072965107
H 	-0.469162883	-0.743301529	-0.660042472
H 	-1.466883553	1.537696623	-0.488915994
H 	-0.012031619	1.574353008	-1.515818906
C 	-0.379208026	1.411791021	-0.495986300
H 	0.057361293	2.179703562	0.152626846
C 	2.204279610	-4.033870422	-0.093309492
C 	1.347410210	-2.764202607	-0.092772549
H 	2.801554261	-4.104641916	0.821206769
H 	2.898357056	-4.042477740	-0.939572094
H 	1.561010231	-4.917897142	-0.159447897
H 	0.633595216	-2.771408165	0.743836883
H 	0.727122079	-2.709889999	-1.001093118
C 	0.052307457	0.357043425	2.530652152
C 	-0.426702469	0.118366196	3.820152751
C 	-1.490068427	-0.766212916	3.979909618
C 	-2.084155011	-1.419552720	2.902385494
C 	-1.587118207	-1.172825651	1.619608355
C 	-0.526106499	-0.278057559	1.416889671
H 	0.890738684	1.035212632	2.397310312
H 	0.013686411	0.600885491	4.688161795
F 	-1.967995072	-1.005731095	5.238496064
H 	-2.913840871	-2.100401859	3.071735757
H 	-2.038289169	-1.677396205	0.767584070
Sn	5.134882391	0.005669476	0.337529092
Cl	4.324100788	0.856209816	-1.741542934
Cl	6.403578910	-1.985691619	0.336892689
Cl	6.921516552	1.571506306	0.619091174
Cl	3.932544285	0.593709335	2.322634753
