33

H 	1.464614390	2.244435640	0.691746550
C 	3.533427450	1.481773210	0.439553270
C 	2.040789640	1.383614320	0.366479380
C 	1.304258250	0.279522340	-0.163623620
O 	0.033879020	0.291632010	-0.228801770
H 	3.952648600	0.487858350	0.650064520
H 	5.070776760	2.502168860	1.607526200
H 	3.592971900	2.124827130	2.528775730
C 	3.977616160	2.454083390	1.556125420
H 	3.599695070	3.464443020	1.360964140
C 	1.107509040	-2.042243530	-1.239764390
C 	2.026843070	-0.962158690	-0.661313590
H 	0.537599930	-1.658135290	-2.092327410
H 	0.386947710	-2.390603350	-0.492880280
H 	1.703325100	-2.898234480	-1.575997450
H 	2.772149950	-0.638187120	-1.402951090
H 	2.613452460	-1.360792710	0.182404490
C 	3.520423600	3.003322810	-1.621891430
C 	4.021895440	3.403142920	-2.863763550
C 	5.076741190	2.683144520	-3.420233560
C 	5.641201800	1.580803310	-2.780084630
C 	5.122107480	1.191409280	-1.540471200
C 	4.069110820	1.900443630	-0.941855120
H 	2.689776390	3.554373910	-1.187963610
H 	3.603784600	4.252743560	-3.396837390
F 	5.575055570	3.069250150	-4.637509180
H 	6.466356870	1.046317670	-3.243558690
H 	5.553381750	0.332288310	-1.029538030
Sn	-1.590370210	1.877409790	0.405618810
Cl	-0.635392240	1.564628710	2.575271720
Cl	-2.994138270	0.206718660	-0.504164400
Cl	-3.286460360	3.437023000	1.053997660
Cl	-0.422858890	3.318518700	-1.109956770
