33

H 	2.009504969	0.956529235	0.012055399
C 	0.000000000	0.000000000	0.000000000
C 	1.496328548	0.000000000	0.000000000
C 	2.319686467	-1.171658116	-0.000000000
O 	3.583786379	-1.093753248	0.096661976
H 	-0.344629038	-0.641174859	-0.825641893
H 	-1.665105752	1.386824793	-0.256422782
H 	-0.201070700	1.841289591	-1.159706345
C 	-0.571810006	1.418929787	-0.218781195
H 	-0.275569630	2.082550037	0.601366056
C 	2.726427183	-3.678882790	-0.337021055
C 	1.707188270	-2.555660873	-0.118704771
H 	3.444342315	-3.725599714	0.487058439
H 	3.294396098	-3.522515954	-1.260277534
H 	2.208864277	-4.641599201	-0.406343390
H 	1.131503307	-2.727186794	0.803630694
H 	0.957383722	-2.536269788	-0.922483954
C 	-0.007431774	-0.284783493	2.547890449
C 	-0.513522579	-0.849208799	3.720699787
C 	-1.565540869	-1.770098429	3.657777154
C 	-2.111140790	-2.127517827	2.419733083
C 	-1.583579178	-1.551166273	1.269492290
C 	-0.536135579	-0.625806296	1.290733084
H 	0.818808632	0.420195276	2.599270567
H 	-0.085195367	-0.572911916	4.680686279
H 	-1.963766542	-2.213097030	4.567269567
H 	-2.929164530	-2.837929508	2.336124154
F 	-2.121602074	-1.913114395	0.055531098
Sn	5.069255421	0.677264460	0.533191440
Cl	4.298503788	1.493549311	-1.571422942
Cl	6.578666047	-1.137489329	0.593397029
Cl	6.612275826	2.445569611	0.994119946
Cl	3.663464952	1.033924696	2.441856135
