28

H 	0.410858959	-3.492542457	0.286474410
C 	-1.666518730	-0.086936758	1.493543222
C 	0.538986638	-1.427194048	0.426046702
C 	2.875617213	-0.313244978	-0.297137005
O 	4.595667582	-1.835428470	-1.283810089
H 	-1.318458218	1.939586449	1.337646292
H 	-3.326337547	0.247438590	5.255389027
H 	-0.007745036	-0.061626202	5.269318115
C 	-1.739324122	-0.729681469	4.368184847
H 	-1.928393536	-2.755551742	4.722731547
C 	-3.809280715	-0.004234663	-2.801785310
C 	-4.227124560	-0.636292827	0.017415504
C 	-6.286909632	1.142719861	1.053935063
C 	-5.122410949	-3.394199250	0.270487920
H 	-5.519238720	-3.915463560	2.229588800
H 	-5.586055846	-0.183357502	-3.845188354
H 	-2.444901635	-1.286722973	-3.683660306
H 	-3.109193141	1.922731595	-3.054491781
H 	-8.004358577	0.956789573	-0.085370728
H 	-5.692222708	3.121514293	0.965263571
H 	-6.806662709	0.710546515	3.005475322
H 	-6.875333214	-3.654197253	-0.796490702
H 	-3.757512240	-4.749088912	-0.491282102
H 	3.977899424	-3.573782602	-1.405156391
B 	3.670671942	2.769222547	-0.007523674
F 	3.296154134	3.382572780	2.556915807
F 	1.948976475	4.069350973	-1.580156720
F 	6.156508010	3.103811051	-0.759650518
