11
GO, R2=F, R1=Cl, Rcat=ZnCl2
H	 0.09039378	-1.80988465	-0.51555853
C	-0.90781845	-0.00771283	-0.04943451
C	 0.18266548	-0.75219647	-0.26512258
C	 1.55928918	-0.22013974	-0.18291419
O	 1.86635738	 0.93365884	 0.07180470
H	-0.82431619	 1.04491294	 0.20242594
F	-2.20186653	-0.56041709	-0.13919841
Cl	 2.81900880	-1.40969238	-0.49222146
Sn	 2.11649976	 4.00970191	 1.24030281
Cl	 2.37669725	 4.61951391	 3.52772774
Cl	 2.38909661	 6.12967906	 0.18995859
