11
GO, R2=F, R1=Cl, Rcat=ZnCl2
H	-0.62056146	-0.03764738	-0.08023722
C	-0.09659473	-2.02948020	-0.54883449
C	 0.18266548	-0.75219647	-0.26512258
C	 1.55928918	-0.22013974	-0.18291419
O	 1.86635738	 0.93365884	 0.07180470
H	 0.69695300	-2.74612423	-0.73626627
F	-1.42719518	-2.49103568	-0.61642875
Cl	 2.81900880	-1.40969238	-0.49222146
Sn	 1.85103070	 2.46611042	 0.80757453
Cl	 2.20976082	 2.91058035	 3.11963972
Cl	 1.78879142	 4.68377222	-0.05841484
