8
R2=H, R1=F, GO
C	 0.31224700	 0.44519900	 0.00000000
C	 0.98391400	-0.71430800	 0.00000000
H	 0.45842300	-1.66804700	 0.00000000
C	-1.16278400	 0.48525400	 0.00000000
H	 0.82313200	 1.40706500	 0.00000000
O	-1.82405800	 1.50729100	 0.00000000
H	 2.05326402	-0.75159776	 0.00000000
F	-1.78571247	-0.77968083	-0.00000000
