33

H 	1.341403851	-1.672686693	-0.035381141
C 	0.000000000	0.000000000	0.000000000
C 	0.303993814	-1.349207367	-0.000000000
C 	-0.661999817	-2.396689218	0.000000000
O 	-0.303105760	-3.616408343	-0.151678216
H 	-1.039161298	0.300159773	0.121325102
H 	0.601994428	-0.098547779	-2.690406957
H 	-0.527002956	1.355310528	-2.381554768
H 	-1.230549785	-0.366902129	-2.537968446
C 	-0.372305423	0.283181360	-2.410697950
C 	-3.023409131	-3.387597083	0.153082092
C 	-2.145929764	-2.130394277	0.178073525
H 	-2.744405635	-4.078448342	0.954519852
H 	-2.918291747	-3.923416564	-0.795285599
H 	-4.075143190	-3.110079828	0.282713446
H 	-2.283025676	-1.579841900	1.120053847
H 	-2.454841654	-1.432385409	-0.615129042
O 	3.704903402	4.222748672	0.562109819
H 	3.253552074	5.072479006	0.715866097
C 	2.775550410	3.223032182	0.430061347
C 	3.259126512	1.922114888	0.203791275
C 	2.368391058	0.868945396	0.060574324
C 	0.970467492	1.077618627	0.136695958
C 	0.509194344	2.393399534	0.359473894
C 	1.392896442	3.456178439	0.509836907
H 	4.332238757	1.761248734	0.144667388
H 	2.762282247	-0.128111421	-0.115288660
H 	-0.561850843	2.578798323	0.417771004
H 	1.017684525	4.463157481	0.687648804
Al	1.315229321	-4.295790139	-0.805048587
F 	1.331791634	-3.682224321	-2.377586418
F 	1.169051282	-5.956940686	-0.650812203
F 	2.515894884	-3.580822785	0.151730992
