25

H 	2.092601900	0.200349250	1.212381400
C 	4.016581590	-0.439647690	0.639374480
C 	2.679384390	-0.575577320	0.726761810
C 	1.903579060	-1.604181950	0.011129530
O 	0.814320380	-1.305993470	-0.547748730
H 	4.637470140	-1.131829440	0.065930870
O 	4.673349570	0.580811370	1.245062010
C 	6.074205730	0.751015520	0.859001410
C 	6.689194680	1.799561790	1.770515790
H 	6.107035550	1.063859730	-0.193996960
H 	6.585824850	-0.217953720	0.957172850
H 	6.157128410	2.752645150	1.676635240
H 	7.738283180	1.957939270	1.491913850
H 	6.650847570	1.476801960	2.817264150
N 	2.377158260	-2.892770720	-0.082789610
C 	1.656399330	-3.842878500	-0.943974240
C 	3.313616610	-3.506543920	0.868796790
H 	1.177694610	-3.301566310	-1.760836360
H 	0.881727920	-4.380569260	-0.377603110
H 	2.373760890	-4.569839040	-1.341517950
H 	4.234496760	-3.828692450	0.363188240
H 	2.843001600	-4.390915980	1.320525460
H 	3.565642440	-2.800993790	1.659780210
I 	0.229213580	1.213580460	-1.161528470
I 	-0.407034900	3.847457080	-1.874996590
