25

H 	2.100380497	0.148972365	1.317610138
C 	4.013032685	-0.459451244	0.678732662
C 	2.680837058	-0.609928596	0.799577595
C 	1.898581747	-1.616368139	0.060712796
O 	0.809089858	-1.298425245	-0.485084637
H 	4.622985953	-1.131923502	0.071585206
O 	4.674734615	0.554337939	1.286623730
C 	6.061236569	0.750800542	0.867762287
C 	6.660638590	1.843970172	1.735395488
H 	6.066073064	1.033265040	-0.193789566
H 	6.601918263	-0.199665971	0.984661781
H 	6.103007309	2.779148411	1.617703718
H 	7.701355888	2.019783569	1.438456001
H 	6.643279801	1.555611808	2.792093122
N 	2.365300051	-2.901902322	-0.070094928
C 	1.645491443	-3.822433337	-0.960950386
C 	3.311827486	-3.542779183	0.850907233
H 	1.136980531	-3.250467157	-1.737105858
H 	0.896246311	-4.404861240	-0.405554488
H 	2.367169359	-4.513240494	-1.411285453
H 	4.222284874	-3.858083838	0.323273129
H 	2.843468096	-4.434869730	1.288883754
H 	3.580851999	-2.857186634	1.653357785
I 	0.304552671	1.219249991	-1.154078947
I 	-0.245840619	3.850514817	-1.948950092
