31

H 	1.912592830	0.910306571	0.185469170
C 	0.000000000	0.000000000	0.000000000
C 	1.349309095	0.000000000	-0.000000000
C 	2.198895041	-1.198277988	-0.000000000
O 	3.191485689	-1.245127344	0.793993679
H 	-0.526099045	-0.948358309	-0.111655042
C 	-0.364690466	2.450009676	0.481559874
C 	-1.224787323	3.530304920	0.649845213
C 	-2.599262499	3.317729770	0.530040718
C 	-3.138408204	2.064071557	0.256239845
C 	-2.262099371	0.991429814	0.091238434
C 	-0.864593704	1.160351139	0.190778676
H 	0.704040194	2.609820150	0.591863047
H 	-0.850818665	4.524069031	0.879756395
F 	-3.444432522	4.377550764	0.697216202
H 	-4.215013799	1.940524048	0.180266192
H 	-2.665276137	0.002688082	-0.118779403
N 	1.964007980	-2.263383425	-0.802179796
C 	2.771933330	-3.484802368	-0.643682093
C 	1.056052444	-2.252290394	-1.956149475
H 	3.277042226	-3.464627328	0.321056706
H 	3.522678724	-3.548572459	-1.442135211
H 	2.110116179	-4.355717249	-0.707609981
H 	0.167686465	-2.867178484	-1.762189199
H 	1.584254610	-2.671236026	-2.820835441
H 	0.747929768	-1.233146499	-2.186162785
Ti	3.947214708	-0.272250627	2.509048710
Cl	4.736008261	0.795284066	4.327530221
Cl	4.389364703	1.459614204	1.106148615
Cl	1.866043341	-0.526562676	3.346191234
Cl	5.368443625	-2.006194832	2.623993991
