31

H 	2.589574984	0.284059423	1.209172419
C 	4.177662791	-0.219694962	-0.111916842
C 	2.992579669	-0.431181183	0.497580167
C 	2.018556868	-1.465844301	0.125534157
O 	0.789544695	-1.148614482	0.043367620
H 	4.508391345	-0.922159957	-0.877287400
C 	4.752552902	1.988818884	0.964844231
C 	5.639547710	3.044047813	1.151543167
C 	6.858872733	3.022892477	0.472188869
C 	7.214143153	1.989033767	-0.389334794
C 	6.312924137	0.939123075	-0.565955204
C 	5.073961213	0.910860104	0.109053567
H 	3.795895391	2.012119497	1.478804237
H 	5.399188394	3.880185776	1.802219371
F 	7.729351378	4.059668246	0.653416571
H 	8.169551914	2.016215576	-0.905639780
H 	6.571164407	0.124070708	-1.239209102
N 	2.374250238	-2.743630312	-0.146236123
C 	1.362884922	-3.687755687	-0.651702840
C 	3.680050138	-3.331363395	0.178738912
H 	0.499861139	-3.134440664	-1.019528089
H 	1.041667629	-4.364306109	0.150987405
H 	1.806600514	-4.280146481	-1.459645329
H 	4.258287195	-3.530614283	-0.732767015
H 	3.515813070	-4.282623052	0.698667793
H 	4.245357410	-2.663513817	0.827510532
Ti	-0.441610708	0.562269903	-0.083755198
Cl	-1.729180948	2.405365335	-0.201495167
Cl	0.114799763	0.898233285	2.093517656
Cl	0.970651697	1.232799897	-1.712454345
Cl	-2.069979081	-0.891439161	-0.607981248
