21

H 	-0.294033208	0.270655638	-0.030467889
C 	-0.056709701	-1.855983342	-0.038697520
C 	0.386175968	-0.576194849	0.057429429
C 	1.746276350	-0.161719816	0.281976252
O 	2.143750510	0.997550288	0.332075099
H 	0.675295223	-2.658492706	0.056760585
C 	-4.055408035	-3.184588175	-0.690162250
C 	-3.797267898	-1.808978124	-0.584798916
C 	-2.501031834	-1.351962518	-0.373365885
C 	-1.428830655	-2.270128395	-0.260530761
C 	-1.706392087	-3.652598959	-0.366577525
C 	-3.007049798	-4.105334752	-0.581027664
H 	-4.613663749	-1.095577297	-0.667827127
H 	-2.317180535	-0.284114671	-0.291032880
H 	-0.888039761	-4.364580737	-0.279641859
H 	-3.205279582	-5.171413038	-0.661754343
H 	-5.071855047	-3.534471506	-0.855798131
I 	3.304443160	-1.722949413	0.581755661
Zn	1.228468344	2.965311811	0.031851902
Cl	-0.907233775	2.693523476	0.157249866
Cl	2.911388929	4.235236758	-0.260503275
