32

H 	1.437445903	1.836416003	0.720061976
C 	3.495602212	1.065722254	0.404903179
C 	1.995090713	0.944972399	0.440013754
C 	1.204091927	-0.066976713	-0.248733632
O 	0.167840120	0.259248776	-0.896633329
H 	3.940433332	0.102590951	0.133745961
H 	5.158235529	1.693424203	1.671736182
H 	3.913838768	0.747069121	2.523100747
C 	4.080640945	1.515701570	1.759781938
H 	3.607865813	2.437797905	2.114573832
N 	1.612242271	-1.382405464	-0.237553427
C 	0.906222736	-2.350828775	-1.082071003
C 	2.443235433	-1.954633272	0.824619017
H 	0.488581379	-1.836534462	-1.947964415
H 	0.086029793	-2.835409974	-0.532174168
H 	1.616152009	-3.121011652	-1.405299114
H 	3.363132689	-2.392490732	0.414723055
H 	1.883948101	-2.747730751	1.340432758
H 	2.700356766	-1.190816688	1.558743439
C 	3.980963952	1.503413945	-2.046626472
C 	4.149243395	2.354207256	-3.142007266
C 	4.136184232	3.741598344	-2.973002924
C 	3.958432814	4.238663218	-1.685353475
C 	3.781543661	3.416710907	-0.579159115
C 	3.796664715	2.025420826	-0.756913404
H 	3.972687603	0.425574183	-2.194220695
H 	4.281018601	1.937328873	-4.137556360
H 	4.245274795	4.426002958	-3.808461053
F 	3.949897232	5.594707686	-1.496740039
H 	3.624421901	3.871875970	0.393709762
I 	0.194432229	2.644286382	-2.129319348
I 	0.362483062	5.063613665	-3.513186649
