28

H 	2.455348510	0.693144660	-0.325924750
C 	4.292341860	-0.193132900	0.295755920
C 	2.965958100	-0.212987880	-0.008300910
C 	2.142394760	-1.398911600	0.015371460
O 	0.912586660	-1.328168780	-0.292635020
H 	4.779498100	-1.124233590	0.588762580
C 	6.936595350	3.156148930	0.248047410
C 	7.404846330	1.883846000	0.597605530
C 	6.526258190	0.801455220	0.609318930
C 	5.163063190	0.969108100	0.269788780
C 	4.706208590	2.263091820	-0.081834510
C 	5.586530130	3.340270480	-0.090946970
H 	8.450635120	1.738964440	0.859760560
H 	6.886891200	-0.189391530	0.881487410
H 	3.664764250	2.421221890	-0.349120470
H 	5.225066660	4.329502420	-0.362981390
H 	7.618973510	4.003602750	0.238259210
C 	1.668706840	-3.903670980	0.313211380
C 	2.688661020	-2.760988920	0.400785790
H 	1.281428320	-4.010476440	-0.705347250
H 	0.816340820	-3.723447810	0.975609900
H 	2.144387500	-4.846385960	0.605571540
H 	3.561130980	-2.967341610	-0.236100480
H 	3.085407640	-2.675272390	1.424123800
Al	-0.215430670	0.141894390	-0.651550760
F 	0.699927640	1.131741300	-1.674714170
F 	-0.404371540	0.803971640	0.885042890
F 	-1.564834990	-0.562275820	-1.350584500
