28

H 	2.468893081	0.730435364	-0.254907645
C 	4.327468240	-0.185207017	0.272232720
C 	2.991497884	-0.185615168	0.010884415
C 	2.155819269	-1.361169982	0.055021066
O 	0.917207728	-1.273468327	-0.199245516
H 	4.814720675	-1.124063313	0.537582943
C 	6.993006523	3.145342897	0.195301341
C 	7.460450233	1.867295144	0.522215781
C 	6.575947787	0.790219856	0.541567364
C 	5.206965567	0.969516157	0.236076859
C 	4.750915514	2.269170873	-0.092785839
C 	5.637394845	3.340603658	-0.111369382
H 	8.510244508	1.713560255	0.760156383
H 	6.936533211	-0.204930454	0.795369253
H 	3.704397691	2.436454398	-0.331862683
H 	5.275884734	4.334325302	-0.364443594
H 	7.680010336	3.988400706	0.178905483
C 	1.630174055	-3.838076257	0.448999891
C 	2.696277728	-2.737227932	0.394973732
H 	1.119080516	-3.939791207	-0.513080005
H 	0.871388154	-3.615083301	1.205471227
H 	2.099119515	-4.795906902	0.697749688
H 	3.468265346	-2.981381831	-0.349989230
H 	3.227851824	-2.662587114	1.354394762
Al	-0.324920270	0.062346224	-0.657797300
F 	0.578005972	1.492830485	-0.763887125
F 	-1.382985484	0.026229045	0.642774438
F 	-0.910301111	-0.480943729	-2.131847117
