24

C 	1.363313755	-0.000000000	-0.000000000
C 	0.000000000	0.000000000	0.000000000
C 	-0.371533140	0.514499792	2.445117132
H 	1.926219443	-0.930977506	0.019850576
C 	2.229575351	1.163823477	-0.000000000
H 	-0.158948515	-0.477855887	2.824653304
H 	-0.505141535	0.956959219	-0.110963119
H 	-1.402779382	0.840854962	2.380317543
H 	0.403614751	1.269012117	2.486008022
O 	3.430301673	1.179342712	-0.014320447
Cl	1.319918802	2.818625851	0.028507152
C 	-0.974151525	-1.313847732	-1.826353433
C 	-0.852991271	-1.230213356	-0.272009797
C 	-2.274337389	-1.062850696	0.314127730
C 	-0.222478006	-2.534248615	0.260591585
H 	-0.057825713	-2.480398470	1.342665082
H 	-1.613511026	-2.162152491	-2.099601494
H 	0.009898371	-1.451458546	-2.286856526
H 	-1.420819431	-0.401321206	-2.238129982
H 	-2.926738768	-1.862340769	-0.056013483
H 	-2.713593985	-0.102948961	0.016361350
H 	-2.266524928	-1.113451749	1.406608144
H 	-0.892217354	-3.378460146	0.060209806
H 	0.735951387	-2.753617562	-0.222168572
