24

C 	0.819232980	-0.208329210	0.880204300
C 	0.854549850	-0.337482030	-0.469768160
C 	-1.550404220	-0.452300280	-1.308917180
H 	0.845467280	-1.092711910	1.518245430
C 	0.722839570	1.091049850	1.567328920
H 	-1.737851680	-1.503470480	-1.122775420
H 	1.045569060	0.465347010	-1.107631250
H 	-1.338251720	-0.133687420	-2.323194690
H 	-1.930971490	0.278025510	-0.606056930
O 	0.786058110	1.012232540	2.783137810
Cl	0.528811940	2.656957130	0.787657400
C 	3.145299380	-1.302077520	-0.294973260
C 	1.828534100	-1.365492730	-1.074870360
C 	2.058624130	-1.006620130	-2.546060640
C 	1.200055660	-2.757099370	-0.954132490
H 	0.250898430	-2.791468370	-1.490116310
H 	3.863427090	-2.019184780	-0.696197130
H 	2.973779350	-1.534206890	0.756718790
H 	3.577588990	-0.303138810	-0.362844300
H 	2.746201940	-1.715421150	-3.010569730
H 	2.483424840	-0.005645260	-2.629445210
H 	1.115383780	-1.028925580	-3.093015350
H 	1.863496390	-3.515111920	-1.373887420
H 	1.015129850	-2.999256130	0.093016920
