28

H 	1.642502460	2.400087840	-0.143880790
C 	3.372690250	1.158312840	-0.340692970
C 	2.046698790	1.391275650	-0.110341260
C 	1.048481250	0.399913560	0.217975180
O 	-0.141190590	0.585236710	0.393021160
H 	3.712589730	0.124533030	-0.367495490
H 	3.627299560	1.887168820	2.422147480
H 	5.131621200	0.848532190	2.044837660
H 	3.459731660	0.041253350	2.216609050
C 	4.053967130	0.940704840	2.111170090
Cl	1.655113520	-1.337568840	0.386815230
C 	4.145720220	2.038757690	-2.492312670
C 	4.324676490	2.179328010	-0.943900450
C 	5.795392240	1.848083960	-0.596373680
C 	4.006259470	3.630736910	-0.522840860
H 	4.064271520	3.746508760	0.565663180
H 	4.833847120	2.725982620	-2.999890350
H 	3.120329140	2.281101920	-2.790188040
H 	4.370988620	1.019032320	-2.826594210
H 	6.469068200	2.454075910	-1.213548880
H 	6.021229880	0.791356800	-0.785052760
H 	6.016126910	2.065983990	0.452695440
H 	4.734028940	4.313981580	-0.976372320
H 	3.009781890	3.946261070	-0.850729260
B 	-1.277961500	2.514550990	0.121913850
F 	-1.193487050	2.504826210	-1.216261610
F 	-0.418335260	3.291120140	0.808273030
F 	-2.378011380	2.064098710	0.724231050
