33

H 	2.101632019	-0.701290089	0.065368585
C 	0.000000000	0.000000000	0.000000000
C 	1.065470381	-1.035444121	-0.000000000
C 	0.871681400	-2.452363566	-0.000000000
O 	1.853779597	-3.246639198	0.063549631
H 	-0.946055548	-0.427927399	-0.353304757
H 	-0.411915736	1.949865998	-0.887426953
H 	0.526625799	0.865294151	-1.937043186
C 	0.378559979	1.192821558	-0.902333593
H 	1.309081406	1.660409549	-0.556747280
C 	-0.589076981	-4.564359437	-0.013503147
C 	-0.540514372	-3.034562742	-0.079220587
H 	-0.149557436	-4.931761950	0.919683519
H 	-0.025072710	-5.011122641	-0.838444369
H 	-1.626602975	-4.911629416	-0.071179646
H 	-1.135831019	-2.591935888	0.733697564
H 	-1.003243197	-2.670879953	-1.009370591
C 	-0.251369870	0.468623277	1.492600478
C 	-1.414657390	1.425811546	1.603627731
C 	-2.734315113	0.946527871	1.548551947
C 	-3.818789863	1.824270981	1.618977819
C 	-3.599451110	3.201589494	1.744099083
C 	-2.290571530	3.690881127	1.801529331
C 	-1.207713785	2.808302757	1.729101668
H 	-0.438683587	-0.421621251	2.104548362
H 	0.668205170	0.934044226	1.866810718
H 	-2.912661090	-0.124252301	1.457608608
H 	-4.834134836	1.435256654	1.581463631
H 	-4.442678317	3.886304347	1.800584966
H 	-2.111321500	4.759025198	1.903513425
H 	-0.191074347	3.194338148	1.775421650
I 	4.406561760	-2.560229560	0.404575998
I 	7.102465761	-1.927705744	0.811363238
