25

H 	-1.806700721	-1.131842409	-0.071520643
C 	0.000000000	0.000000000	0.000000000
C 	-1.343311208	-0.156674155	0.000000000
C 	-2.290141875	0.966888611	0.000000000
O 	-3.440255606	0.875551774	-0.504902213
H 	0.400416147	1.015687490	-0.012551576
C 	2.387359084	-0.614376172	-0.155728727
C 	3.432631143	-1.531096940	-0.221927789
C 	3.156820101	-2.903691634	-0.185413175
C 	1.835733306	-3.349271955	-0.079559612
C 	0.810140105	-2.415571750	-0.014310147
C 	1.035166865	-1.022850986	-0.052663662
H 	2.600119772	0.452253520	-0.188758543
H 	4.458138408	-1.180849472	-0.303749984
H 	3.965125240	-3.628694920	-0.238026205
H 	1.588337663	-4.406655915	-0.046358012
F 	-0.465583757	-2.888100272	0.098808238
N 	-1.924549269	2.148660611	0.557844256
H 	-2.597016086	2.907426818	0.552754019
H 	-1.103541725	2.225896289	1.142091408
Ti	-4.557029542	-0.540825570	-1.720532799
Cl	-5.679138245	-2.033697835	-2.965442243
Cl	-4.528236818	-1.815147583	0.143147736
Cl	-6.057864570	1.107891248	-1.869850979
Cl	-2.750688635	-0.472302597	-3.071792396
