25

H 	-0.474477764	-2.092876212	-0.015881511
C 	0.000000000	0.000000000	0.000000000
C 	-0.832084895	-1.070117161	-0.000000000
C 	-2.286743416	-0.935614566	-0.000000000
O 	-3.082323088	-1.894303391	0.071618301
H 	-0.459033894	0.988246054	-0.002559883
C 	2.104623608	1.283829229	-0.042449392
C 	3.491389508	1.396926016	-0.057202399
C 	4.283201414	0.241601342	-0.029914407
C 	3.681312254	-1.019776896	0.013533476
C 	2.295624296	-1.107666595	0.026200048
C 	1.453503949	0.025565576	-0.003574176
H 	1.486548752	2.178906358	-0.064121458
H 	3.956562250	2.378593795	-0.089567190
H 	5.367649976	0.318142082	-0.040978520
H 	4.267585681	-1.934222805	0.037476098
F 	1.743787033	-2.352882418	0.073634373
O 	-2.755433523	0.326590110	-0.081225265
C 	-4.210698356	0.477174958	-0.060882320
H 	-4.619378045	0.046475954	0.856955175
H 	-4.649713235	-0.023334280	-0.928228500
H 	-4.379067385	1.553648069	-0.102480838
Zn	-2.847553010	-3.985058930	0.334756137
Cl	-1.161652098	-4.607332410	-0.850604662
Cl	-4.433715702	-4.501090825	1.679994427
