25

H 	2.249542580	0.903702570	-0.074429810
C 	4.126111150	-0.073187380	0.262277910
C 	2.785402900	-0.027577850	0.069438540
C 	1.943503950	-1.221104180	0.059999350
O 	0.717782640	-1.210657280	-0.181857370
H 	4.576408810	-1.051818910	0.429144690
C 	6.432400130	0.737988850	0.579079080
C 	7.407188220	1.730400220	0.620702060
C 	7.054254170	3.061100680	0.359166920
C 	5.727771650	3.389333140	0.057142760
C 	4.770703550	2.383017110	0.023575060
C 	5.076162250	1.027609610	0.283024840
H 	6.702380560	-0.297117240	0.779537100
H 	8.437215650	1.471737470	0.853115040
H 	7.807843180	3.844878550	0.388023310
H 	5.425775370	4.412025470	-0.152025460
F 	3.487446790	2.739739790	-0.282136440
O 	2.574731590	-2.383553340	0.325906770
C 	1.748451660	-3.591973530	0.281098740
H 	1.269861350	-3.681802300	-0.697679500
H 	0.984376240	-3.549747220	1.062680510
H 	2.445818060	-4.411674450	0.458376350
Zn	-0.536352130	0.360626720	-0.855256860
Cl	-0.193022140	2.058494560	0.426295170
Cl	-1.557607550	-0.498349430	-2.534316580
