25

H 	2.262487088	0.923797203	-0.138772395
C 	4.134865277	-0.055723697	0.235728519
C 	2.797120224	-0.004775933	0.022753141
C 	1.955849709	-1.199056538	0.013802322
O 	0.735879577	-1.198786389	-0.248558619
H 	4.575249826	-1.037631177	0.406807683
C 	6.449517276	0.730267789	0.558317228
C 	7.429470027	1.715845247	0.625084548
C 	7.083532417	3.055722057	0.407040659
C 	5.758626569	3.400089493	0.121963648
C 	4.797875623	2.399410256	0.061840084
C 	5.094368376	1.035594907	0.277172564
H 	6.714453493	-0.311260340	0.727660761
H 	8.458696991	1.445222000	0.845447210
H 	7.841039469	3.834010831	0.456631315
H 	5.458986695	4.429558491	-0.053850540
F 	3.518049544	2.771165607	-0.223080947
O 	2.582539992	-2.355766156	0.311645826
C 	1.755992458	-3.562839424	0.285594614
H 	1.309976916	-3.690514579	-0.704211215
H 	0.965594057	-3.490066837	1.037596925
H 	2.444464631	-4.375861720	0.517701785
Zn	-0.633158291	0.291744552	-0.880753257
Cl	-0.187432162	2.093133110	0.210527583
Cl	-1.839895155	-0.721187121	-2.333207259
