28

H 	-1.770378219	-1.180641409	-0.025155371
C 	0.000000000	0.000000000	0.000000000
C 	-1.349775539	-0.178568075	-0.000000000
C 	-2.327332929	0.885758604	-0.000000000
O 	-3.562869184	0.628182755	0.027002311
H 	0.397082389	1.015724950	0.019725829
O 	3.950375964	-4.018597619	-0.100641372
H 	4.845996978	-3.636701749	-0.061021513
C 	3.018754475	-3.013488113	-0.074350125
C 	1.664157241	-3.393265994	-0.126207875
C 	0.674391884	-2.424876934	-0.102353751
C 	1.000639810	-1.045900120	-0.025676303
C 	2.368297011	-0.691237989	0.020723047
C 	3.369221716	-1.656226911	-0.000859302
H 	1.415221258	-4.449315176	-0.187469414
H 	-0.365551805	-2.736770464	-0.150904105
H 	2.642683847	0.360447001	0.076704562
H 	4.417844383	-1.363957643	0.037813837
C 	-3.086228068	3.337660537	-0.015667924
C 	-1.912589970	2.351334914	-0.038490272
H 	-3.695423634	3.205266657	0.883848540
H 	-3.741207795	3.191437736	-0.880279212
H 	-2.709382736	4.366194326	-0.034635495
H 	-1.240843725	2.531369819	0.813644782
H 	-1.296196012	2.502383631	-0.936699224
Zn	-4.633563769	-1.143625798	0.226030662
Cl	-6.422083578	-0.612763146	1.293661955
Cl	-3.599936725	-2.840041018	-0.661294094
