28

H 	2.406490880	0.689982610	0.579193910
C 	4.243062610	-0.124006010	-0.125298650
C 	2.923793400	-0.192118330	0.209182030
C 	2.110492840	-1.385745530	0.150474900
O 	0.883319850	-1.349249730	0.450981660
H 	4.739609870	-1.019760320	-0.501835420
O 	7.603624310	4.386392880	0.279905920
H 	8.495861970	4.199095170	-0.065778520
C 	6.815802140	3.270575070	0.153582980
C 	5.486419440	3.372671850	0.605953790
C 	4.639141350	2.280554340	0.513697130
C 	5.088542530	1.048284410	-0.030283920
C 	6.428038180	0.972317770	-0.477983510
C 	7.285129330	2.064921950	-0.393830130
H 	5.145828590	4.314578330	1.028427580
H 	3.619038530	2.376283880	0.877249140
H 	6.795215360	0.037332790	-0.897842020
H 	8.313678870	1.987108090	-0.745461530
C 	1.688405240	-3.885091990	-0.276505750
C 	2.699342230	-2.730932790	-0.260535590
H 	0.866647280	-3.680911520	-0.970392090
H 	1.251183240	-4.039916850	0.715163860
H 	2.185779220	-4.811346990	-0.586018590
H 	3.159256430	-2.606594590	-1.252368560
H 	3.531183350	-2.953583900	0.424158280
Zn	-0.408777870	0.210300430	0.931242030
Cl	-2.339702590	-0.409293600	0.215537140
Cl	0.604456910	1.853220600	1.938528840
