28

H 	1.778701470	2.129626560	0.797817390
C 	3.780946120	1.232175520	0.624141990
C 	2.292504900	1.202578190	0.552203010
C 	1.493549820	0.148955250	0.046791490
O 	0.244794550	0.317777800	-0.165477230
H 	4.222284400	0.232539650	0.549884940
H 	5.422685260	2.030508740	1.795534340
H 	4.053266140	1.422002290	2.767832970
C 	4.330652650	1.959291730	1.853336920
H 	3.917645880	2.973855850	1.920320650
C 	1.037376200	-2.250662210	-0.728810130
C 	2.070640420	-1.232797620	-0.230624770
H 	0.561008260	-1.907115860	-1.652918100
H 	0.244448710	-2.400683470	0.011112870
H 	1.523395730	-3.213653180	-0.921408390
H 	2.880089780	-1.119495650	-0.966837720
H 	2.559959560	-1.591879610	0.687932290
C 	4.146798300	1.276182430	-1.915702900
H 	4.634752720	1.920858890	-2.655130060
H 	3.134131330	1.049165240	-2.278857450
H 	4.723175520	0.347946390	-1.835616580
N 	4.174032740	1.966726490	-0.620034910
H 	3.730176790	2.886604670	-0.662862230
Ti	-1.138684180	1.888359310	-0.428644180
Cl	-2.474763100	3.678372640	-0.716798660
Cl	-0.897533050	2.201311520	1.801885040
Cl	0.413743930	2.643429900	-1.933330530
Cl	-2.595557080	0.335668090	-1.096763710
