26

H 	-1.457654433	-1.535604019	-0.034143150
C 	0.000000000	0.000000000	0.000000000
C 	-1.264340328	-0.466189697	-0.000000000
C 	-2.455577346	0.378984088	0.000000000
O 	-3.601779564	-0.127083904	0.025261010
H 	0.168635613	1.079055951	0.013451426
C 	0.989941130	-2.340749627	-0.031555806
C 	1.262473621	-0.823710777	-0.028985096
C 	2.107216245	-0.438805916	1.218074407
C 	2.044945597	-0.427590669	-1.314176275
H 	2.254374286	0.648754479	-1.338351210
H 	1.939388830	-2.886642502	-0.064140062
H 	0.394927238	-2.643208426	-0.900220632
H 	0.455191925	-2.652609103	0.873151162
H 	3.062266102	-0.976853622	1.197720473
H 	1.582754433	-0.703077810	2.143371365
H 	2.322482581	0.636577630	1.237983222
H 	3.002082880	-0.961708511	-1.341130460
H 	1.477208248	-0.690677165	-2.213596150
C 	-2.351512790	1.889107989	-0.037642669
H 	-3.353185762	2.319623919	0.016177776
H 	-1.863532317	2.211652168	-0.965974317
H 	-1.746369017	2.258791511	0.798588373
Zn	-4.183413902	-2.159575807	0.109593317
Cl	-5.488110927	-2.317189034	1.802055529
Cl	-3.163412838	-3.180217034	-1.498845800
