26

H 	 -1.457654	 -1.535604	 -0.034143
C 	  0.000000	  0.000000	  0.000000
C 	 -1.264340	 -0.466190	 -0.000000
C 	 -2.455577	  0.378984	  0.000000
O 	 -3.601780	 -0.127084	  0.025261
H 	  0.168636	  1.079056	  0.013451
C 	  0.989941	 -2.340750	 -0.031556
C 	  1.262474	 -0.823711	 -0.028985
C 	  2.107216	 -0.438806	  1.218074
C 	  2.044946	 -0.427591	 -1.314176
H 	  2.254374	  0.648754	 -1.338351
H 	  1.939389	 -2.886642	 -0.064140
H 	  0.394927	 -2.643208	 -0.900221
H 	  0.455192	 -2.652609	  0.873151
H 	  3.062266	 -0.976854	  1.197720
H 	  1.582754	 -0.703078	  2.143371
H 	  2.322483	  0.636578	  1.237983
H 	  3.002083	 -0.961709	 -1.341130
H 	  1.477208	 -0.690677	 -2.213596
C 	 -2.351513	  1.889108	 -0.037643
H 	 -3.353186	  2.319624	  0.016178
H 	 -1.863532	  2.211652	 -0.965974
H 	 -1.746369	  2.258792	  0.798588
Zn	 -4.183414	 -2.159576	  0.109593
Cl	 -5.488111	 -2.317189	  1.802056
Cl	 -3.163413	 -3.180217	 -1.498846
