26

H 	2.426967690	0.751337902	-0.436806510
C 	4.178364048	-0.200341743	0.277979162
C 	2.885984326	-0.176012324	-0.102877812
C 	1.992842408	-1.331131159	-0.065967780
O 	0.806969002	-1.238579909	-0.460506735
H 	4.611295843	-1.139464147	0.629546831
C 	4.498101448	2.269832949	-0.228077173
C 	5.135272507	0.964734810	0.288081066
C 	6.354449986	0.583281695	-0.597920657
C 	5.614827145	1.157939857	1.755592245
H 	6.074799054	0.243301171	2.149071086
H 	5.233422618	3.081120870	-0.187748708
H 	3.634057574	2.564940880	0.377266474
H 	4.167108816	2.169230074	-1.268284212
H 	7.100264310	1.386239807	-0.565530681
H 	6.050604400	0.437395523	-1.640738653
H 	6.831520467	-0.339142153	-0.244758190
H 	6.361789217	1.959535735	1.795740539
H 	4.777756522	1.432981314	2.406868901
C 	2.460884841	-2.674014160	0.453957337
H 	1.653636136	-3.401208963	0.348474660
H 	2.744741014	-2.592485184	1.510715605
H 	3.342555638	-3.019802279	-0.098522916
Zn	-0.224100611	0.419942447	-1.274529355
Cl	-1.018443635	-0.255851105	-3.146380532
Cl	0.030778155	2.065544252	0.102503177
