28

H 	2.069145214	0.871107697	-0.018151152
C 	0.000000000	0.000000000	0.000000000
C 	1.498916158	-0.050617601	0.000000000
C 	2.277002844	-1.265650473	0.000000000
O 	3.553228962	-1.285151930	-0.109142908
H 	-0.356473607	-0.581627544	-0.867825537
H 	-1.601981269	1.469221907	-0.200452334
H 	-0.112226938	1.896101895	-1.077974091
C 	-0.508243101	1.451173839	-0.158499097
H 	-0.186965194	2.065449488	0.689742859
N 	1.655843954	-2.468918413	0.087478323
H 	2.241546508	-3.295518233	0.135674541
H 	0.690436367	-2.538385521	0.387563878
C 	-0.122732934	-0.320783025	2.528394810
C 	-0.669785170	-0.919730195	3.665809507
C 	-1.689098866	-1.872874509	3.552588756
C 	-2.137526176	-2.201217840	2.277263584
C 	-1.610814854	-1.620862418	1.124367201
C 	-0.591232070	-0.665027181	1.249013298
H 	0.674856748	0.410756022	2.631923348
H 	-0.298865232	-0.648366311	4.651231852
H 	-2.128119899	-2.351959214	4.423066808
F 	-3.133437849	-3.130308984	2.142736469
H 	-2.005977570	-1.905822800	0.151689098
B 	4.493554503	0.054763263	-0.293202221
F 	4.034036741	0.674097151	-1.452420009
F 	5.758451083	-0.461444573	-0.385101537
F 	4.262451323	0.820608818	0.848885975
