26

H 	1.944848538	0.913254757	0.002070511
C 	0.000000000	0.000000000	0.000000000
C 	1.356840662	-0.000000000	0.000000000
C 	2.157850581	-1.205175863	0.000000000
O 	3.419605286	-1.207524683	0.030288404
H 	-0.514967895	-0.960629008	-0.002274220
C 	-2.602954373	3.383321260	0.010319673
C 	-1.213909073	3.582781716	0.010276602
C 	-0.347577631	2.494544213	0.005360454
C 	-0.856733393	1.174447651	0.001743518
C 	-2.257751248	0.990865401	0.001726500
C 	-3.122914772	2.084390553	0.006381559
H 	-0.810530196	4.592578540	0.013582361
H 	0.725437772	2.665694735	0.005177807
H 	-2.659292456	-0.020731875	-0.001746564
H 	-4.198805898	1.926171903	0.006961555
H 	-3.274390962	4.238982228	0.014802475
O 	1.506627323	-2.371155528	-0.037323896
C 	2.327852139	-3.587776162	-0.027073370
H 	2.919045089	-3.626590246	0.891255277
H 	2.989470903	-3.595427623	-0.896690703
H 	1.607464671	-4.404483298	-0.069658903
Al	4.783755104	0.077469453	0.208470542
F 	5.308251989	-0.176971767	1.781849310
F 	3.995035167	1.557360338	-0.022413863
F 	5.847033231	-0.345606503	-1.015776627
