26

H 	2.443735170	0.717691880	0.659551310
C 	4.230768050	-0.115399640	-0.197167870
C 	2.925346890	-0.127607030	0.175891070
C 	2.047009520	-1.261814520	-0.017911580
O 	0.828372890	-1.269957370	0.316418800
H 	4.638957510	-1.006726210	-0.674393800
C 	7.053811200	3.048886100	0.298478310
C 	5.728387140	3.235842040	0.722099080
C 	4.791314130	2.218699150	0.567657650
C 	5.163454970	0.985601590	-0.018884860
C 	6.500848950	0.814808520	-0.443638440
C 	7.437527130	1.836323670	-0.285595040
H 	5.430476940	4.179284350	1.174455250
H 	3.769006310	2.378246180	0.900990600
H 	6.796320900	-0.129915910	-0.897426360
H 	8.463353600	1.689336810	-0.616797500
H 	7.781329700	3.848163550	0.423053850
O 	2.578712940	-2.353014000	-0.578862700
C 	1.683879990	-3.499196220	-0.786141490
H 	0.869870080	-3.215104700	-1.458252670
H 	1.277945300	-3.831253640	0.172922230
H 	2.318897750	-4.264064000	-1.233993230
Al	-0.405185520	-0.022589790	1.001522070
F 	-1.347832960	0.312050980	-0.347142200
F 	0.553218300	1.277737100	1.511625380
F 	-1.141533400	-0.877552210	2.241805800
