32

H 	  0.147621	 -2.118195	 -0.035892
C 	  0.000000	  0.000000	  0.000000
C 	 -0.518080	 -1.263647	  0.000000
C 	 -1.925316	 -1.575116	 -0.000000
O 	 -2.327310	 -2.764266	 -0.121311
H 	 -0.677977	  0.849670	  0.079108
H 	  0.167289	 -0.658169	 -2.798888
H 	  0.222053	  1.213982	 -2.736674
H 	 -1.391982	  0.310361	 -2.515525
C 	 -0.310323	  0.285788	 -2.569517
C 	 -2.977655	 -0.499609	  0.158922
H 	 -2.859934	  0.279250	 -0.604295
H 	 -2.881991	 -0.014731	  1.138449
H 	 -3.968695	 -0.948668	  0.071264
C 	  1.603115	  0.365971	  1.809097
C 	  1.461463	  0.323508	  0.252347
C 	  1.829232	  1.715660	 -0.309302
C 	  2.419657	 -0.744908	 -0.315908
H 	  2.304506	 -0.840360	 -1.400840
H 	  2.635776	  0.625710	  2.070956
H 	  1.361825	 -0.607300	  2.248159
H 	  0.939377	  1.119674	  2.249528
H 	  2.814549	  2.020643	  0.061034
H 	  1.101654	  2.475243	  0.002982
H 	  1.870366	  1.707629	 -1.402436
H 	  3.456264	 -0.458043	 -0.106356
H 	  2.252606	 -1.728299	  0.135012
Ti	 -1.486463	 -4.716215	 -0.522161
Cl	 -0.492628	 -6.684110	 -0.953663
Cl	 -3.593100	 -5.442027	 -0.533258
Cl	 -0.695499	 -3.709457	 -2.395680
Cl	 -0.488005	 -4.436907	  1.487653
