26

H 	1.913324916	0.927453504	0.001275924
C 	0.000000000	0.000000000	0.000000000
C 	1.358685040	0.000000000	0.000000000
C 	2.149325909	-1.221359381	0.000000000
O 	3.403884382	-1.194143574	-0.001477606
H 	-0.512421405	-0.962125640	-0.001221208
C 	-2.304815382	0.876431085	0.000628705
C 	-3.242965376	1.903171054	0.005323941
C 	-2.813106985	3.236691727	0.010682701
C 	-1.446767808	3.533617236	0.011405119
C 	-0.528285569	2.492745693	0.007782652
C 	-0.909752496	1.131742486	0.002230788
H 	-2.635612877	-0.160127753	-0.003523916
H 	-4.304384155	1.670252383	0.004681826
H 	-3.537575511	4.047258922	0.013844824
H 	-1.082799949	4.557261085	0.015013309
F 	0.793751197	2.822514605	0.009258091
C 	1.493893274	-2.589370695	0.003682087
H 	0.842252605	-2.709666515	-0.870108997
H 	0.877535995	-2.718278521	0.901894758
H 	2.271636990	-3.354754498	-0.014340914
Sn	5.046173409	0.566693966	-0.012321570
Cl	3.993731684	1.158052401	2.039882570
Cl	3.977702136	1.144228186	-2.060780770
Cl	6.706957364	2.287853959	-0.024756520
Cl	6.463698896	-1.321427476	-0.011629621
