36

H 	1.909500570	0.921360553	-0.209831396
C 	0.000000000	0.000000000	0.000000000
C 	1.378088242	0.000000000	-0.000000000
C 	2.250127898	-1.159043511	0.000000000
O 	3.356312139	-1.109951910	-0.640360206
H 	-0.536950287	-0.894734682	0.299197389
H 	0.071506605	-0.051597228	-2.709875382
H 	-1.568407714	-0.725614020	-2.127559674
H 	-0.044046884	-1.798450101	-2.100413778
C 	-0.488906539	-0.812262332	-2.181385526
N 	1.944689493	-2.331092820	0.621157559
C 	2.810694953	-3.503646828	0.414114876
C 	0.944688659	-2.460171382	1.686556981
H 	3.371306275	-3.386198618	-0.512519145
H 	2.182305126	-4.399869297	0.366146591
H 	3.520632564	-3.609377448	1.245564972
H 	0.683367875	-1.477616991	2.080637461
H 	1.376282396	-3.059341765	2.496532739
H 	0.037643543	-2.966937961	1.330309010
O 	-3.213485712	4.657534477	-0.182376745
H 	-4.114607467	4.474629638	0.138728909
C 	-2.464487552	3.504803749	-0.126303019
C 	-1.131038292	3.582027437	-0.560456462
C 	-0.325259262	2.451175228	-0.525564984
C 	-0.820910439	1.213971513	-0.059209929
C 	-2.166371500	1.155779075	0.353872911
C 	-2.982905872	2.284303928	0.330415541
H 	-0.748652460	4.531486798	-0.925716765
H 	0.696876613	2.526049539	-0.886297023
H 	-2.576858642	0.210258149	0.704516992
H 	-4.018347544	2.219886903	0.662926490
Ti	4.614286150	0.133912152	-1.708756768
Cl	5.987942238	1.527139870	-2.837279299
Cl	2.847487546	0.527330840	-3.081704163
Cl	4.762687836	1.317662175	0.221956116
Cl	5.866007983	-1.707286663	-2.047237709
