36

H 	1.717555220	2.130632040	-0.366716620
C 	3.500430580	1.010555590	-0.471452830
C 	2.133877590	1.132437310	-0.310159830
C 	1.079371040	0.160843060	-0.102850960
O 	-0.132525720	0.578559510	-0.169672640
H 	3.958294930	0.031370600	-0.553075780
H 	4.012674440	2.210145280	1.886675260
H 	5.254517330	0.854411040	1.622559170
H 	3.572965010	0.464302320	2.325412130
C 	4.225546900	1.151508290	1.796951720
N 	1.252195110	-1.170600500	0.144655150
C 	0.077150490	-2.062636690	0.189201420
C 	2.551250650	-1.833688990	0.299895680
H 	-0.826744690	-1.487861570	-0.005801390
H 	0.009454190	-2.531548370	1.179006090
H 	0.189568100	-2.848879140	-0.568740970
H 	3.015992330	-2.048488540	-0.673231280
H 	2.387317640	-2.782961210	0.816893230
H 	3.230084130	-1.229877370	0.902886980
O 	6.877085460	5.186465620	-2.283928350
H 	7.759742990	4.847814370	-2.520524860
C 	6.086751550	4.145949110	-1.852585470
C 	4.766509110	4.453412070	-1.483027390
C 	3.919245680	3.447427370	-1.037467600
C 	4.357651320	2.107642380	-0.943859210
C 	5.686085270	1.823024590	-1.320561190
C 	6.545359890	2.822282670	-1.773407460
H 	4.423680050	5.482490280	-1.555387700
H 	2.902614770	3.712285480	-0.761180340
H 	6.051098470	0.798637370	-1.258113830
H 	7.566724860	2.577937070	-2.064057290
Ti	-1.338034540	2.211640450	-0.521855530
Cl	-2.648724550	4.019851720	-0.884890860
Cl	-0.372461240	3.109228570	1.335231850
Cl	-0.223938110	2.431316410	-2.487813530
Cl	-3.058243250	0.756860070	-0.364308450
