27

H 	2.074808369	-0.804869221	0.107353335
C 	0.000000000	0.000000000	0.000000000
C 	1.026982195	-1.082550733	0.000000000
C 	0.820272878	-2.498660103	0.000000000
O 	1.668318425	-3.358880661	0.079116702
H 	-0.930859145	-0.391805965	-0.419591132
H 	-0.306806796	2.016066584	-0.759920244
H 	0.589935905	0.954422581	-1.872347750
C 	0.451142527	1.227733332	-0.820368877
H 	1.397081486	1.635379368	-0.447072319
Cl	-0.973312593	-3.018524901	-0.152397619
C 	-0.750593550	0.856496552	4.200154777
C 	-1.737074931	0.250687099	3.415540488
C 	-1.493757042	-0.019975087	2.065979319
C 	-0.269305816	0.330622260	1.478903970
C 	0.717675355	0.935769390	2.274930195
C 	0.478470739	1.198337727	3.624954785
H 	-2.693544759	-0.021630246	3.855701877
H 	-2.251976813	-0.515326186	1.464858543
H 	1.680458946	1.196769534	1.844915302
H 	1.253628683	1.661462473	4.230080759
H 	-0.931788993	1.051746065	5.254263984
Ti	2.255325829	-2.266157765	4.214830921
Cl	0.272237634	-2.722783981	3.417619533
Cl	2.070812930	-1.021857689	6.021516954
Cl	3.511231118	-1.242869517	2.721479449
Cl	3.231243067	-4.151656539	4.772005385
