27

H 	  2.074808	 -0.804869	  0.107353
C 	  0.000000	  0.000000	  0.000000
C 	  1.026982	 -1.082551	  0.000000
C 	  0.820273	 -2.498660	  0.000000
O 	  1.668318	 -3.358881	  0.079117
H 	 -0.930859	 -0.391806	 -0.419591
H 	 -0.306807	  2.016067	 -0.759920
H 	  0.589936	  0.954423	 -1.872348
C 	  0.451143	  1.227733	 -0.820369
H 	  1.397081	  1.635379	 -0.447072
Cl	 -0.973313	 -3.018525	 -0.152398
C 	 -0.750594	  0.856497	  4.200155
C 	 -1.737075	  0.250687	  3.415540
C 	 -1.493757	 -0.019975	  2.065979
C 	 -0.269306	  0.330622	  1.478904
C 	  0.717675	  0.935769	  2.274930
C 	  0.478471	  1.198338	  3.624955
H 	 -2.693545	 -0.021630	  3.855702
H 	 -2.251977	 -0.515326	  1.464859
H 	  1.680459	  1.196770	  1.844915
H 	  1.253629	  1.661462	  4.230081
H 	 -0.931789	  1.051746	  5.254264
Ti	  2.255326	 -2.266158	  4.214831
Cl	  0.272238	 -2.722784	  3.417620
Cl	  2.070813	 -1.021858	  6.021517
Cl	  3.511231	 -1.242870	  2.721479
Cl	  3.231243	 -4.151657	  4.772005
