29

H 	0.366034584	-3.502816980	-0.463288583
C 	-1.739640599	-0.232302105	0.532595857
C 	0.403804162	-1.471082832	-0.131496914
C 	2.875565895	-0.246795511	-0.430959696
O 	4.858191390	-1.285432868	-1.026381520
H 	-1.759663003	1.809411687	0.705749572
H 	-2.204893665	-2.169314393	5.693392739
H 	-3.977806691	0.864189558	5.405402918
H 	-0.467038820	0.898497706	5.718107786
C 	-2.195813115	-0.145038748	5.391341012
C 	-5.113935529	-2.139133558	-2.141201939
C 	-4.304305256	-1.606620604	0.586272620
C 	-6.232589919	0.106265177	1.900018896
C 	-3.984631399	-4.082848440	2.050613136
H 	-3.363589878	-3.698914163	3.977834243
H 	-6.930172246	-3.115168031	-2.180343647
H 	-3.713955154	-3.320936605	-3.084958151
H 	-5.294887917	-0.374838194	-3.190867303
H 	-8.080275571	-0.806643996	1.974488751
H 	-6.421251596	1.886034866	0.878203880
H 	-5.627040354	0.519069008	3.826202165
H 	-5.769119790	-5.113526914	2.129316677
H 	-2.576868338	-5.278046716	1.135745111
H 	2.867499429	1.745201004	-0.083977029
Sn	7.439696549	0.593302515	-1.382136863
Cl	8.783674361	-1.908352286	-4.840866929
Cl	9.739443298	-2.037206965	1.414101939
Cl	6.095718738	3.094957296	2.076593204
Cl	5.139949782	3.223811976	-4.178375664
