29

H 	0.286484928	-3.868339437	0.596129353
C 	-2.144684691	-0.605335985	0.929701923
C 	0.117831917	-1.824327203	0.513956019
C 	2.373429893	-0.450429647	-0.069006077
O 	4.436597762	-1.501611998	-0.504186193
H 	-2.158133854	1.431446821	0.615938128
H 	-1.965697046	-1.069466869	6.334281240
H 	-2.738159840	2.232464584	5.420407078
H 	0.557988345	1.067458409	5.209700613
C 	-1.439742696	0.650357295	5.357175937
C 	-5.401525184	-1.801652013	-2.097152885
C 	-4.746308188	-1.829328712	0.776629813
C 	-6.758074914	-0.244994952	2.171605791
C 	-4.817319150	-4.573309391	1.738986089
H 	-4.369663698	-4.697691392	3.751947659
H 	-7.301678390	-2.569696613	-2.376020504
H 	-4.068911483	-2.945988863	-3.183375792
H 	-5.374565815	0.117943788	-2.866117877
H 	-8.644575571	-0.972901563	1.742139919
H 	-6.702880918	1.738382194	1.586367107
H 	-6.508343774	-0.323671643	4.218386580
H 	-6.714680299	-5.351023479	1.475521484
H 	-3.511656044	-5.801776812	0.713879997
H 	2.231069572	1.628458645	-0.146394117
Sn	8.406258203	0.516528490	-1.790261436
Cl	12.267793271	2.347405021	-3.114488874
Cl	9.930216223	-3.410594458	-0.454409729
Cl	7.353239994	3.500820828	1.358029097
Cl	6.217790797	0.816595841	-5.648244077
