29

H 	0.151601295	-2.047037074	0.315458069
C 	-1.134918263	-0.320330008	0.491977071
C 	0.062353965	-0.965392381	0.271973813
C 	1.255965011	-0.238357104	-0.036516443
O 	2.347746429	-0.794618849	-0.266803844
H 	-1.142035254	0.757489036	0.325940421
H 	-1.040202080	-0.565937495	3.351957280
H 	-1.448971787	1.181369382	2.868355900
H 	0.295274716	0.564874664	2.756854840
C 	-0.761879025	0.344154260	2.834895421
C 	-2.858364031	-0.953393187	-1.109765514
C 	-2.511638129	-0.968039066	0.410974798
C 	-3.576219234	-0.129645745	1.149164296
C 	-2.549215512	-2.420091108	0.920231808
H 	-2.312326448	-2.485911229	1.985445197
H 	-3.863881805	-1.359824887	-1.257335903
H 	-2.153175230	-1.558950170	-1.684569923
H 	-2.844097748	0.062413165	-1.516684264
H 	-4.574512390	-0.514837336	0.921900743
H 	-3.547011829	0.919912241	0.839469321
H 	-3.444067206	-0.171279657	2.232274045
H 	-3.553255793	-2.831639680	0.780812344
H 	-1.858288351	-3.070168072	0.377769026
H 	1.180631174	0.861743204	-0.077468431
Sn	4.448400270	0.273335106	-0.947365553
Cl	6.491836627	1.242193242	-1.648116536
Cl	5.254844124	-1.804808863	-0.240463273
Cl	3.891167031	1.852554602	0.718638050
Cl	3.290313192	0.432123910	-2.988922047
