62
GO, R2=tBu
C	-2.45515696	-0.18252687	 2.48388350
C	-1.18771642	-0.43476093	 2.07388899
C	-0.49442834	-1.66130150	 2.44876372
O	 0.62680271	-1.98454424	 2.06023021
H	-0.64830911	 0.08373594	-2.60629557
H	-2.93118378	-0.93643926	 3.11469092
H	-0.64194923	 0.24936427	 1.43061010
Xx	-0.99589680	-2.25833362	 3.05883095
C	-1.69265124	-2.41278851	-1.94538466
H	-1.60952313	-3.45348543	-1.61607067
H	-2.71420352	-2.27342134	-2.31563753
H	-1.57700366	-1.76660012	-1.07122190
H	 2.27931591	-3.77400204	-2.03813225
H	 0.65027106	-4.17743034	-1.48946778
H	 1.08787699	-4.37601853	-3.19144903
H	 5.51021445	 0.71198152	 1.48956103
H	 4.41306713	-0.53940717	 2.09158199
H	 5.29548853	-0.80282828	 0.58307495
N	 2.67336962	-0.43156947	-0.03457823
C	 2.27954423	-0.66164484	-1.34207362
O	 2.85729899	-0.20087496	-2.32733808
N	 1.13822630	-1.45998204	-1.41238897
C	 3.64347088	 0.58400346	 0.36825145
H	 2.12612218	-0.85272496	 0.70451697
C	 0.81518437	-2.27692824	-2.58587946
H	 0.86729524	-1.88084254	-0.53391788
H	 4.06205997	 0.96444779	-0.56590468
C	 1.22139775	-3.73796902	-2.31482906
C	 4.78301064	-0.04788849	 1.18595117
H	 3.11746163	 3.07673190	-0.60143565
H	 1.44967394	-1.89119184	-3.38859509
C	 2.95973071	 1.75220900	 1.08890153
C	 2.49014969	 1.64363479	 2.40644043
C	 1.84632567	 2.71049433	 3.03167271
C	 1.66180539	 3.91604031	 2.35413771
C	 2.12518071	 4.04017096	 1.04508375
C	 2.76500037	 2.96795214	 0.42187040
H	 2.62117053	 0.71801635	 2.96128884
H	 1.49166502	 2.60105731	 4.05494079
H	 1.16571217	 4.75107001	 2.84445441
H	 1.99270632	 4.97579762	 0.50555405
C	-0.67514354	-2.06266061	-3.05192856
C	-0.96593998	-2.93517496	-4.29184740
H	-1.93941866	-2.67051643	-4.71785558
H	-0.99745061	-4.00167926	-4.05221250
H	-0.21355334	-2.78573240	-5.07408656
C	-0.85898304	-0.58230431	-3.44640796
H	-0.18804102	-0.30403541	-4.26550655
H	-1.88717738	-0.39951320	-3.77682042
C	-2.94683515	 2.16443455	 3.16105096
C	-3.19032616	 1.10851970	 2.07851331
C	-4.68532777	 0.79718890	 1.95945397
C	-2.63201199	 1.58127294	 0.73280849
H	-2.78523164	 0.81704163	-0.02997168
H	-3.45409523	 3.09695128	 2.90800830
H	-1.87958623	 2.36577168	 3.26005819
H	-3.32363165	 1.81434507	 4.12272714
H	-5.24146239	 1.69126801	 1.67263060
H	-5.07410521	 0.43767694	 2.91284926
H	-4.85269798	 0.02755402	 1.20512731
H	-3.13042138	 2.49739514	 0.41150022
H	-1.56259344	 1.77859117	 0.81508131
