34

H 	1.984598336	0.963276420	0.006275826
C 	0.000000000	0.000000000	0.000000000
C 	1.482613369	-0.000000000	-0.000000000
C 	2.327362289	-1.148835233	-0.000000000
O 	3.595105991	-1.050283226	0.148087780
H 	-0.380688479	-1.024888299	-0.083037526
H 	-1.591797470	0.806951820	-1.272914133
H 	-0.130004025	0.340694466	-2.157866040
C 	-0.498483996	0.801232119	-1.234879459
H 	-0.141682597	1.835572218	-1.211447721
C 	2.823376094	-3.649327377	-0.266800128
C 	1.765507760	-2.544483872	-0.176779567
H 	3.438520423	-3.680543689	0.637797204
H 	3.495169760	-3.483666619	-1.115491962
H 	2.335534365	-4.621832052	-0.393111972
H 	1.083752629	-2.728885940	0.668240269
H 	1.120321833	-2.543210965	-1.068077362
C 	-0.130143388	2.012484464	1.645984799
C 	-0.560687904	0.552272041	1.391293969
C 	-0.009926963	-0.346500908	2.523267782
C 	-2.100593575	0.455320471	1.381110742
H 	-2.435773796	-0.563828471	1.148420214
H 	-0.548264948	2.353979755	2.600680630
H 	-0.497730361	2.688787226	0.866576611
H 	0.958503051	2.112369421	1.709951496
H 	-0.427952160	-0.036342796	3.488138731
H 	1.081679297	-0.278475059	2.594679268
H 	-0.284338989	-1.397680774	2.364910289
H 	-2.491097347	0.718230812	2.371919380
H 	-2.554160032	1.140967080	0.657823959
B 	4.412788594	0.354303454	0.521881432
F 	4.227915560	1.186743951	-0.573306714
F 	5.695794345	-0.080864967	0.706316027
F 	3.787379811	0.820925825	1.675514748
