34

H 	1.601633790	2.213046980	0.393935340
C 	3.524023760	1.171062950	0.095136570
C 	2.041471870	1.254488230	0.133648120
C 	1.127856310	0.186788690	-0.113841750
O 	-0.140761160	0.362603150	-0.073754990
H 	3.843139110	0.142403890	-0.111443130
H 	5.160004930	1.469366200	1.524445250
H 	3.653220680	0.904407010	2.266075480
C 	4.070217260	1.565502230	1.498455310
H 	3.799490730	2.593456640	1.759352370
C 	0.512838960	-2.241686320	-0.683332790
C 	1.620326340	-1.211498450	-0.434664120
H 	-0.119961160	-1.943956500	-1.526041000
H 	-0.134336220	-2.346414790	0.193614290
H 	0.958169350	-3.217463050	-0.908014660
H 	2.285236680	-1.136837090	-1.308723720
H 	2.273740580	-1.533028560	0.391930660
C 	3.721823770	3.539398320	-0.967320370
C 	4.121073770	2.053093470	-1.095734780
C 	3.572577090	1.492270760	-2.429229760
C 	5.659879340	1.925925830	-1.094285600
H 	5.976194120	0.874476330	-1.112939290
H 	4.184189890	4.112804620	-1.780226060
H 	4.065373310	3.974264760	-0.021970170
H 	2.637668180	3.679583720	-1.039668040
H 	3.992260640	2.049120840	-3.275548760
H 	2.480389420	1.578652630	-2.481030220
H 	3.843969170	0.436109980	-2.558726270
H 	6.069396250	2.414586540	-1.987220170
H 	6.113442500	2.406743730	-0.220967910
B 	-0.923962880	1.813419330	0.233509520
F 	-0.518187940	2.170463680	1.513028560
F 	-2.243802220	1.467708760	0.121316840
F 	-0.461403330	2.679726080	-0.752193370
