20

C 	-4.076721860	-0.675720516	-0.448159012
C 	-1.870924258	-0.939609483	0.786744987
C 	0.298814279	0.687623315	0.195766934
O 	2.355870597	0.564381586	1.229220892
H 	-4.159772256	0.793452395	-1.899286559
H 	-1.574005131	-2.340063036	2.260392055
C 	-8.608816278	-0.204435813	0.566588946
C 	-6.512517768	-2.128496971	-0.129985362
C 	-6.357881927	-4.187257588	1.914838839
C 	-7.159176614	-3.351731665	-2.711776084
H 	-5.717193061	-4.725479604	-3.267865547
H 	-10.438283465	-1.160447936	0.708389186
H 	-8.778960178	1.280564021	-0.863554023
H 	-8.214959985	0.701658647	2.383043821
H 	-8.166653059	-5.178137403	2.063288173
H 	-5.930094364	-3.387012287	3.772513745
H 	-4.909294785	-5.594498602	1.472518131
H 	-8.975869968	-4.335804035	-2.601505347
H 	-7.297830155	-1.931039206	-4.209053508
H 	-0.054883853	2.111588478	-1.324290595
