29

H 	1.948089423	-0.865017478	-0.027026454
C 	0.000000000	0.000000000	0.000000000
C 	0.878851841	-1.072118936	0.000000000
C 	0.482968074	-2.435012394	0.000000000
O 	1.350897255	-3.375086713	0.011413770
H 	-1.073354739	-0.118842065	0.143018434
H 	0.509406517	0.403122219	-2.608699481
H 	-1.315639223	0.682496023	-2.348073734
H 	-0.655251127	-1.042395291	-2.540624952
C 	-0.465645514	0.006836424	-2.349120923
C 	-1.246986619	-3.844693607	-1.204984162
C 	-0.960532445	-2.896924493	-0.018572814
H 	-0.566222232	-4.699760800	-1.182803173
H 	-1.116002593	-3.330004294	-2.164174819
H 	-2.277315020	-4.211434336	-1.152381928
H 	-1.127763157	-3.438454199	0.923239445
H 	-1.651644519	-2.049070080	-0.032066946
O 	0.492485774	1.236221330	0.172377956
C 	-0.480145184	2.331287098	0.235808385
C 	0.266715531	3.595849359	0.619800350
H 	-1.247335863	2.068397183	0.976485309
H 	-0.952009582	2.422281125	-0.751083772
H 	0.742821392	3.485026562	1.599642872
H 	-0.437757371	4.434494789	0.666762536
H 	1.037795955	3.831091394	-0.121363468
Al	3.212527324	-3.500221114	0.040303972
F 	3.528503047	-4.736310231	-1.050334525
F 	3.556678855	-3.824940020	1.652850825
F 	3.753718939	-1.976572522	-0.468850918
