66

C 	-5.826656924	2.019202071	3.682131203
C 	-3.177047661	1.399644117	2.922060017
C 	-1.748675908	-0.678263600	3.906889861
O 	0.371036594	-1.347609695	3.107607577
H 	1.967264044	-8.827040703	-5.744492634
H 	-6.323518135	0.800708895	5.288853568
H 	-2.285580586	2.465552301	1.401315712
H 	11.016157631	0.714448246	2.519818697
H 	8.299865545	-0.731001453	3.839100377
H 	0.939342605	-7.742443298	-2.751867749
H 	10.115042862	-2.383328522	1.571192358
C 	-7.594079691	1.248924285	1.464349322
H 	-7.218271500	2.347183901	-0.245816784
H 	4.185103921	-7.679015378	-3.537323625
H 	-2.460212143	-2.617635381	-3.198258551
H 	-9.578057455	1.499545811	1.981985937
H 	-7.320532404	-0.746905104	0.996888526
N 	5.689902396	-1.100155426	-0.667026476
C 	5.185399245	-1.935390714	-3.106077333
N 	2.723814783	-2.852320771	-3.368082758
C 	7.817822753	0.579305030	-0.071905610
H 	4.195960945	-0.979011982	0.523758439
C 	2.060522387	-4.687218117	-5.343711939
H 	1.817344020	-3.140849088	-1.707073456
H 	8.978964234	0.589973895	-1.777502660
C 	2.280875811	-7.393348692	-4.291221208
C 	9.404575362	-0.515747361	2.102327306
H 	8.251380710	4.678124188	-3.168911577
H 	3.511100217	-4.451321337	-6.796221712
C 	6.908048183	3.284021806	0.414180194
C 	5.637086705	3.960237585	2.643424020
C 	4.767336004	6.421178199	3.020989296
C 	5.156429196	8.268739167	1.176829344
C 	6.418871410	7.625213571	-1.047652050
C 	7.281232110	5.158131933	-1.420089952
H 	5.305529211	2.563134092	4.113475723
H 	3.792123090	6.900807999	4.769302491
H 	4.488482121	10.191272657	1.475709354
H 	6.737214068	9.046297084	-2.500494074
C 	-0.544441435	-4.006510459	-6.615601178
C 	-1.137352625	-5.920100404	-8.739325475
H 	-2.790346012	-5.296134513	-9.818137654
H 	-1.564999272	-7.804982688	-8.006063966
H 	0.442916636	-6.092167394	-10.067272022
C 	-0.336194617	-1.351507067	-7.807546668
H 	1.171132973	-1.283595223	-9.225050190
H 	-2.110736814	-0.838156615	-8.743895645
H 	0.079589784	0.085221433	-6.382908070
C 	-2.747132341	-4.011539511	-4.699592667
H 	-3.019911075	-5.863974423	-3.817904453
H 	-4.520886729	-3.523626739	-5.651425909
C 	-4.505314951	5.247499841	6.984311425
C 	-6.214435358	4.834803214	4.654815871
C 	-8.987088847	5.208883854	5.489534394
C 	-5.562759430	6.822969764	2.624419063
H 	-6.733311671	6.624964469	0.931197961
H 	-4.784271729	7.148164853	7.754960636
H 	-2.499914779	5.049425400	6.516319446
H 	-4.943146239	3.895805502	8.491593870
H 	-9.197983170	7.047152850	6.418725977
H 	-9.584787110	3.759958458	6.844028929
H 	-10.306001312	5.183617517	3.898775868
H 	-5.898395728	8.723240183	3.373888148
H 	-3.578230508	6.739231559	2.049959177
H 	-2.639444918	-1.748275305	5.482638954
O 	6.736970350	-1.870801632	-4.848222632
