66

C 	-5.825290135	2.114034112	3.589390933
C 	-3.272929375	1.160075829	2.889376480
C 	-2.202698418	-1.140183363	3.812720997
O 	-0.120312437	-1.994787947	3.137012186
H 	2.190407866	-9.013639544	-5.904648326
H 	-6.603689649	0.823965384	5.016626018
H 	-2.151196496	2.189261817	1.504158638
H 	10.432085250	1.021838510	2.780844066
H 	7.704120480	-0.430692417	4.070219063
H 	0.915449239	-8.138006852	-2.940578804
H 	9.593091480	-2.101543811	1.885196683
C 	-7.550217283	1.909685293	1.227014310
H 	-6.867036909	3.075646187	-0.334804430
H 	4.204882515	-7.941875186	-3.477057269
H 	-2.663112580	-3.199796113	-3.472422274
H 	-9.486396360	2.473331272	1.668228077
H 	-7.608552227	-0.047007737	0.563197196
N 	5.194590887	-0.896476336	-0.478964198
C 	4.869340277	-1.939835806	-2.852962171
N 	2.584797851	-3.187950514	-3.151246447
C 	7.307367943	0.779683212	0.111914939
H 	3.721423737	-0.922796097	0.736120141
C 	2.136711143	-4.909830311	-5.263344559
H 	1.598258530	-3.533410003	-1.555023449
H 	8.511070034	0.695677543	-1.562261169
C 	2.352859663	-7.663175704	-4.351832519
C 	8.843959293	-0.233838435	2.355875569
H 	7.263820886	4.440169581	-3.476039706
H 	3.704540344	-4.556946476	-6.560960838
C 	6.435112043	3.523178243	0.403086109
C 	5.482400411	4.487839845	2.678776318
C 	4.654827962	6.986281757	2.857498615
C 	4.766638519	8.578493307	0.759098175
C 	5.712563231	7.645798261	-1.519135367
C 	6.535359024	5.147267905	-1.689355117
H 	5.387934637	3.295293756	4.348050541
H 	3.936123207	7.694414421	4.649316058
H 	4.136002195	10.529653958	0.901174136
H 	5.821926655	8.868638755	-3.168404216
C 	-0.346758004	-4.233576324	-6.756136373
C 	-0.608244860	-5.994077563	-9.067764430
H 	-2.173269717	-5.367401487	-10.267786113
H 	-0.996126476	-7.951245748	-8.532399881
H 	1.106722215	-5.976461502	-10.227303574
C 	-0.141957991	-1.491392819	-7.727273265
H 	1.504912396	-1.251601131	-8.955578313
H 	-1.826008552	-0.986070409	-8.819247601
H 	0.039072635	-0.146369197	-6.171760645
C 	-2.731700283	-4.475657525	-5.098402689
H 	-3.004820561	-6.401176688	-4.395958279
H 	-4.417296866	-3.979741475	-6.192691898
C 	-4.033890145	4.692836800	7.219792694
C 	-5.785756622	4.816213077	4.889616561
C 	-8.470933012	5.482311841	5.806936861
C 	-4.841067522	6.905841498	3.094188273
H 	-6.062451935	7.125362462	1.442217496
H 	-4.066443666	6.490772882	8.241830304
H 	-2.072043764	4.313560425	6.690220449
H 	-4.631365786	3.215047138	8.540423633
H 	-8.424020226	7.234832968	6.905751533
H 	-9.245420080	4.003676488	7.031151607
H 	-9.790937901	5.780511780	4.247208822
H 	-4.824413996	8.722666720	4.083850315
H 	-2.915735045	6.561538326	2.428839500
H 	-3.348433974	-2.199034102	5.220512181
O 	6.456875129	-1.767195595	-4.545409188
