12
GO, Rcat=BF3
H	-0.62056146	-0.03764738	-0.08023722
C	-0.09659473	-2.02948020	-0.54883449
C	 0.18266548	-0.75219647	-0.26512258
C	 1.55928918	-0.22013974	-0.18291419
O	 1.86635738	 0.93365884	 0.07180470
H	 0.69695300	-2.74612423	-0.73626627
H	-1.10634117	-2.37973861	-0.60012943
H	 2.32514145	-0.94333367	-0.37095895
B	 1.85103070	 2.46611042	 0.80757453
F	 1.21169900	 1.96533883	 1.83725713
F	 1.17915281	 2.94809146	-0.21028491
F	 3.16224029	 2.48490098	 0.79575137
