25

H 	0.28314300	-2.03876700	0.18751100
C 	-1.05635800	-0.33810500	0.34110800
C 	0.16948800	-0.95925100	0.14660300
C 	1.33372600	-0.20211100	-0.12822500
O 	2.46198800	-0.73099900	-0.31652400
H 	-1.09004700	0.73149700	0.14116500
H 	-0.08624300	-0.30760300	2.96729800
H 	-1.92938700	-0.07763100	2.96628900
H 	-0.81153200	1.33857400	2.52181200
C 	-0.94999500	0.27274900	2.66645800
C 	-4.91709600	-2.17953600	0.29722900
C 	-4.77215300	-0.81545300	0.03945000
C 	-3.51054400	-0.23041300	0.08022000
C 	-2.36313400	-0.99885300	0.36017200
C 	-2.52737300	-2.37387300	0.61926000
C 	-3.79037900	-2.95349900	0.59080400
H 	-5.64314500	-0.20657000	-0.18916600
H 	-3.40530700	0.83319600	-0.12117700
H 	-1.66800200	-2.99413500	0.85495200
H 	-3.89916300	-4.01564000	0.79524500
H 	-5.90236400	-2.63838800	0.27314200
H 	1.23883400	0.89410200	-0.18123800
Al	4.09324000	0.21678700	-0.65963800
F 	4.11202200	1.31489200	0.61758500
F 	3.79184800	0.92482900	-2.15435600
