32

H 	2.070926297	-0.695437572	0.204176064
C 	0.000000000	0.000000000	0.000000000
C 	1.067666001	-1.057624630	-0.000000000
C 	0.927393474	-2.491810152	-0.000000000
O 	1.815584448	-3.261770760	0.513474646
H 	-1.002597794	-0.426339243	-0.134393942
H 	-0.505663842	1.860178856	-0.978070707
H 	0.241185898	0.659096930	-2.066337125
C 	0.260383390	1.080944832	-1.054590617
H 	1.242928503	1.535109051	-0.888184107
N 	-0.185017268	-3.107435676	-0.511237661
C 	-0.349063709	-4.551440896	-0.285618446
C 	-1.018554963	-2.536909001	-1.576725254
H 	0.025538618	-4.814875748	0.703708219
H 	0.210165032	-5.131871499	-1.032478493
H 	-1.413703362	-4.791888188	-0.366339089
H 	-2.047504814	-2.376740781	-1.231099945
H 	-1.041418428	-3.239841272	-2.419452246
H 	-0.599524516	-1.598216470	-1.935387879
O 	0.043734376	0.655520713	1.291623751
C 	-0.665896052	-0.056776470	2.337895834
C 	-0.471324787	0.707368622	3.637818468
H 	-0.272480671	-1.077301789	2.431982925
H 	-1.733094411	-0.114482254	2.063028048
H 	0.590377278	0.742183421	3.902772829
H 	-1.015204613	0.206000933	4.447597479
H 	-0.847212982	1.732806308	3.547291626
Sn	3.714157052	-2.989967739	1.740027170
Cl	4.534443304	-1.825713522	-0.178776512
Cl	3.622913926	-5.359853204	1.689939414
Cl	5.721879498	-2.787087337	3.040566710
Cl	2.298353938	-1.838047558	3.282472879
