29

H 	1.402212970	2.075181570	-0.808969840
C 	3.329681490	1.210937800	-0.425167160
C 	1.949966530	1.216498690	-0.444927140
C 	1.175188790	0.116633790	0.059586220
O 	-0.094383050	0.161463920	0.154157380
H 	3.830689440	0.295452690	-0.116724180
H 	3.716007030	3.048325780	1.618328170
H 	4.742076850	1.532658190	1.972162310
H 	2.918822710	1.551677210	2.383107060
C 	3.767043420	1.997671720	1.877014470
C 	1.819787750	-1.170779010	0.525419850
H 	2.484721760	-1.585799960	-0.241007010
H 	1.039905720	-1.895983440	0.765840910
H 	2.423943390	-0.987105450	1.424671350
C 	5.624059480	1.875014180	-1.053407790
C 	6.563655450	2.738950270	-1.606485360
C 	6.144688950	3.956045030	-2.162350050
C 	4.788859030	4.297628990	-2.156599130
C 	3.867311810	3.419886710	-1.595167260
C 	4.240714350	2.181659870	-1.029635920
H 	5.947500180	0.931223490	-0.617797010
H 	7.617049050	2.469172320	-1.607263110
H 	6.870027270	4.640057480	-2.597169720
H 	4.434759870	5.234854910	-2.577366420
F 	2.555197340	3.800334830	-1.592492990
B 	-1.047429350	1.502212060	-0.140039650
F 	-2.305499590	1.049519020	0.164553670
F 	-0.847333700	1.807031780	-1.480881300
F 	-0.555299300	2.470750200	0.729252740
