30

H 	1.524212110	2.173535490	0.645509210
C 	3.485161490	1.222901160	0.232881400
C 	2.004608420	1.238556100	0.376017580
C 	1.104219860	0.144077520	0.138020090
O 	-0.167348810	0.283711970	0.018900080
H 	3.849064910	0.200723190	0.049199250
H 	5.226287410	1.719600540	1.471040860
H 	3.847100820	1.085466470	2.385910840
C 	4.134704220	1.729608990	1.547180090
H 	3.810134290	2.748067400	1.782725290
N 	1.583244590	-1.122476670	0.029861250
H 	2.555501280	-1.337475860	0.202606970
H 	0.924176010	-1.878887480	-0.116599690
C 	3.231044090	1.422179000	-2.297770000
C 	3.928158300	2.046738510	-1.066297030
C 	5.458244330	1.927333650	-1.236518600
C 	3.529526240	3.534735840	-0.955349770
H 	4.001772850	4.021623060	-0.094573110
H 	3.574473490	1.916810230	-3.214387930
H 	2.142690100	1.537296950	-2.243661990
H 	3.465533580	0.352934420	-2.388620630
H 	5.758918460	2.393858220	-2.182990510
H 	5.778486730	0.877021160	-1.265299700
H 	6.006035230	2.432480460	-0.433751800
H 	3.859563830	4.067097930	-1.855754600
H 	2.444332680	3.659417920	-0.878610590
B 	-0.903703030	1.735192010	-0.178603670
F 	-0.236678360	2.337238320	-1.251830920
F 	-0.714419420	2.429457260	1.017297940
F 	-2.207535750	1.399308310	-0.441275500
