30

H 	1.516319613	2.167756360	0.668582078
C 	3.481979632	1.233672807	0.245932693
C 	2.002494112	1.242106314	0.380350432
C 	1.108414218	0.152022968	0.106043514
O 	-0.163883946	0.288366846	0.001054641
H 	3.852944955	0.210523167	0.084203677
H 	5.210026446	1.757253361	1.493047244
H 	3.821549494	1.138414755	2.403281246
C 	4.118094841	1.766293367	1.556099404
H 	3.788910640	2.788214027	1.768233898
N 	1.591599445	-1.105306793	-0.058067503
H 	2.567880915	-1.321146611	0.083408480
H 	0.935123724	-1.855630078	-0.239218561
C 	3.248569502	1.384578940	-2.289991917
C 	3.931103511	2.034076060	-1.064418799
C 	5.461543413	1.914951496	-1.220233534
C 	3.525651754	3.521237974	-0.986033363
H 	3.988446105	4.026742241	-0.131455481
H 	3.603965310	1.858837007	-3.212199599
H 	2.160141905	1.501557828	-2.253048914
H 	3.481851698	0.313549545	-2.355354858
H 	5.769199595	2.363356080	-2.172666618
H 	5.782653574	0.865028067	-1.226377886
H 	6.001829003	2.435646175	-0.422985893
H 	3.860808692	4.037757088	-1.893478297
H 	2.439633871	3.642576812	-0.920240293
B 	-0.908426214	1.742851230	-0.115009903
F 	-0.248353740	2.406544696	-1.153871396
F 	-0.723603493	2.372116418	1.113778282
F 	-2.208958624	1.414183923	-0.394107966
