23

C 	0.304696748	0.521278979	0.155494319
C 	1.438330955	-0.493910065	0.517482004
H 	1.544587783	-1.170194183	-0.339279515
C 	-0.991874484	-0.157559782	-0.201745084
H 	0.626566210	1.119340483	-0.705881244
H 	0.110483426	1.194044605	0.997290850
H 	0.901142023	-0.701565074	2.635458707
C 	1.068956330	-1.335583143	1.756391382
H 	1.878408518	-2.034782140	1.993778544
H 	0.154292634	-1.914711400	1.582745953
O 	-2.044443202	-0.151404575	0.357898735
F 	-0.837827575	-0.905173520	-1.385542679
C 	5.205078627	1.636738855	0.920317602
C 	4.211036261	1.783099278	1.895601678
C 	2.997789033	1.098036058	1.773056410
C 	2.758083814	0.250910991	0.677525837
C 	3.762180253	0.113026408	-0.293063954
C 	4.976907959	0.798421954	-0.175945610
H 	4.380933553	2.431772528	2.752983403
H 	2.238203283	1.221506609	2.543131087
H 	3.589997747	-0.538063379	-1.149323159
H 	5.742249873	0.676208460	-0.940207606
H 	6.148828738	2.169770704	1.016165129
