23

C 	0.302721828	0.529754137	0.152227048
C 	1.442149082	-0.486890461	0.482843170
H 	1.547272801	-1.144860726	-0.387885800
C 	-1.013590350	-0.141841838	-0.129077291
H 	0.591172139	1.107572949	-0.733898924
H 	0.151505496	1.219907700	0.987707880
H 	0.914740310	-0.744509015	2.597428349
C 	1.088330651	-1.358037585	1.705731421
H 	1.907573869	-2.050881777	1.925252418
H 	0.181754249	-1.946877749	1.523270397
O 	-2.037971364	-0.108703271	0.478739062
F 	-0.925548242	-0.918289026	-1.295409273
C 	5.205244778	1.633890213	0.944322732
C 	4.182503764	1.808331528	1.884123783
C 	2.971176250	1.126146740	1.740400170
C 	2.758546234	0.257751985	0.656567839
C 	3.790451395	0.093091329	-0.279401735
C 	5.005480625	0.772818139	-0.139065159
H 	4.328626713	2.476309189	2.730585696
H 	2.188460478	1.271833045	2.482368074
H 	3.641209815	-0.576731800	-1.125071954
H 	5.794125332	0.627981369	-0.874574101
H 	6.148672656	2.163443564	1.057148978
