30

H 	2.087670404	0.438446371	-0.122302271
C 	0.000000000	0.000000000	0.000000000
C 	1.326164091	-0.322834688	0.000000000
C 	1.835184825	-1.683786115	0.000000000
O 	2.991390697	-2.003903718	-0.439873380
H 	-0.743210469	-0.789031542	0.124685356
H 	-0.111039416	0.539451308	-2.777087334
H 	-1.436344769	-0.713086020	-2.378715021
H 	0.352828317	-1.233634233	-2.530438136
C 	-0.385882189	-0.448340676	-2.428112667
N 	1.071909303	-2.698713932	0.471599260
H 	0.239730404	-2.519028037	1.015118219
H 	1.462290615	-3.634148791	0.464543074
C 	-0.645562557	1.561294800	1.780806730
C 	-0.538155502	1.405758499	0.231440155
C 	-1.953460009	1.566289584	-0.370773192
C 	0.397343513	2.499535823	-0.325660390
H 	0.558475703	2.374607541	-1.401615477
H 	-1.060983225	2.546746122	2.023625705
H 	0.339657598	1.470821610	2.250125686
H 	-1.306582389	0.799446920	2.212622511
H 	-2.388315991	2.519814206	-0.050164078
H 	-2.620673773	0.762023990	-0.035348593
H 	-1.928346354	1.557147355	-1.463999869
H 	-0.049375404	3.486269837	-0.158831421
H 	1.375284170	2.491002710	0.166342668
B 	3.940819669	-0.999695760	-1.329038698
F 	4.307177562	0.039157403	-0.476868640
F 	3.129510092	-0.571126526	-2.379360170
F 	4.979644624	-1.808962755	-1.711570500
