30

H 	1.590399170	2.333780870	-0.449687960
C 	3.355309360	1.139565180	-0.427641440
C 	2.007838770	1.340924470	-0.332625360
C 	1.033164650	0.328462450	0.039916570
O 	-0.174071210	0.599318940	0.362818320
H 	3.765207190	0.129970320	-0.363094270
H 	3.497776400	2.108330310	2.223791560
H 	4.842812330	0.821056340	2.068018460
H 	3.061007990	0.304146770	2.230326190
C 	3.790864000	1.082028830	2.037758780
N 	1.380162980	-0.982240320	0.089779610
H 	2.248281270	-1.313820560	-0.307235150
H 	0.657117660	-1.656905190	0.313881490
C 	4.334800620	1.898683830	-2.550756320
C 	4.322866230	2.162789480	-1.012207140
C 	5.757945510	1.953030470	-0.473453450
C 	3.876032020	3.616870050	-0.746712740
H 	3.777746750	3.810104700	0.327347920
H 	5.036095710	2.589498150	-3.035183720
H 	3.338763030	2.051229900	-2.980060690
H 	4.657451260	0.874352630	-2.776794460
H 	6.458426940	2.580170540	-1.037267200
H 	6.077334500	0.908207470	-0.583166230
H 	5.834616940	2.228499780	0.582700050
H 	4.622306560	4.310159460	-1.152057420
H 	2.917629070	3.845946020	-1.224101980
B 	-0.784265000	2.116301920	0.542312350
F 	-0.689740540	2.715410100	-0.714238900
F 	0.033948440	2.731129900	1.491635830
F 	-2.070762380	1.882864670	0.962776910
