23

H 	-0.22058800	0.16613700	-0.44831300
C 	-0.17543100	-1.93790700	-0.04600100
C 	0.33797700	-0.68735500	-0.08457600
C 	1.68571900	-0.47502000	0.37913800
O 	2.31481100	0.59764400	0.41723500
H 	0.46974100	-2.73133300	0.34031600
C 	-1.33564800	-3.48868300	-1.56160100
C 	-1.54086200	-2.40623400	-0.46865600
C 	-2.43249300	-1.27701600	-1.00952700
C 	-2.20683800	-3.05826500	0.77227300
H 	-2.36572400	-2.32426100	1.56765900
H 	-2.30460000	-3.90296600	-1.85693900
H 	-0.71332600	-4.31392000	-1.20144900
H 	-0.86081600	-3.06690600	-2.45229100
H 	-3.40700400	-1.67929600	-1.30081400
H 	-1.99463100	-0.80194000	-1.89211500
H 	-2.60688900	-0.50256800	-0.25698900
H 	-3.18036600	-3.47321400	0.49319200
H 	-1.59811100	-3.87323000	1.17643700
H 	2.22795400	-1.36360200	0.74444100
B 	1.72231100	2.17223600	-0.09016400
F 	0.62549100	2.36985700	0.71126700
F 	1.43651000	1.98677700	-1.41961500
