27

H 	1.927217452	0.935210962	-0.042843256
C 	0.000000000	0.000000000	0.000000000
C 	1.374171423	-0.000000000	-0.000000000
C 	2.201393460	-1.190050632	-0.000000000
O 	3.449084812	-1.114563857	-0.081645781
H 	-0.520670419	-0.944486003	0.142699845
H 	-0.138185738	0.669190646	-2.659107887
H 	-1.567119515	-0.452959356	-2.254986474
H 	0.121624168	-1.172057463	-2.590592052
C 	-0.498758409	-0.310694940	-2.370666852
C 	1.568379022	-2.570448706	0.100815191
H 	0.873772579	-2.740765028	-0.731599982
H 	0.997174165	-2.667111349	1.032513785
H 	2.354953688	-3.327174425	0.076646917
C 	-2.214057621	1.032153886	0.438726361
C 	-3.049059859	2.139049079	0.600296144
C 	-2.539989708	3.434962316	0.470579703
C 	-1.183143884	3.579964542	0.181317683
C 	-0.327189818	2.500479865	0.020254655
C 	-0.843839921	1.195104633	0.150009333
H 	-2.620679446	0.027985357	0.537404671
H 	-4.102939657	1.996411567	0.826500267
H 	-3.166204835	4.314874581	0.587296536
F 	-0.675191784	4.842975194	0.048947867
H 	0.717911589	2.685382504	-0.208686121
I 	4.786355380	1.182982579	-0.515015936
I 	6.212202075	3.537867317	-1.018883992
