25

C 	0.333258456	0.970303160	0.637933084
C 	2.619893566	-0.853984016	0.868854517
H 	2.780780823	-1.864206828	-0.940851249
C 	-2.093362426	-0.251321707	-0.270568870
H 	0.746092711	2.435766646	-0.775825284
H 	-0.074523447	1.925744758	2.423366546
H 	1.934260374	-2.038278100	4.795615207
C 	2.047336786	-2.859767558	2.900519615
H 	3.467345933	-4.355940359	2.933877136
H 	0.226774184	-3.767074033	2.527850373
O 	-4.161716254	0.037706575	0.681340490
H 	-1.880229136	-1.456876910	-1.998154887
C 	5.935591509	1.970644594	-1.242179210
C 	5.237902942	0.552775940	1.213983401
C 	7.366465486	-1.386412009	1.718286901
C 	5.194401636	2.458344224	3.424059299
H 	4.642283907	1.569091966	5.207030335
H 	7.768214570	2.908336902	-1.028134316
H 	4.567257112	3.436051520	-1.743399151
H 	6.090352104	0.668604265	-2.844689357
H 	9.203025489	-0.433108579	1.702507121
H 	7.422375263	-2.862240075	0.267135124
H 	7.176164887	-2.305165935	3.557782707
H 	7.079140981	3.266237272	3.702261472
H 	3.903994177	4.033680374	3.072077324
