27

H 	2.393475900	0.533997731	0.552993164
C 	4.284140138	-0.244403967	-0.049573094
C 	2.963608660	-0.341308081	0.248781050
C 	2.182165127	-1.571952724	0.203971812
O 	0.969841666	-1.570094538	0.503189425
H 	4.817616215	-1.146478088	-0.351471097
O 	7.520816651	4.379626519	0.067314238
H 	8.435220122	4.176653547	-0.200545219
C 	6.765108740	3.234064689	0.025713702
C 	5.410023953	3.346203549	0.386530121
C 	4.595331416	2.225112946	0.364975683
C 	5.099659696	0.956716503	-0.014518890
C 	6.463384564	0.871775429	-0.371795078
C 	7.290911173	1.990788213	-0.355322945
H 	5.021313449	4.318016313	0.679031879
H 	3.551556299	2.331103263	0.647262797
H 	6.875627267	-0.091165318	-0.667085851
H 	8.340113508	1.903884223	-0.635080055
C 	1.876298206	-4.089733417	-0.202357385
C 	2.833738960	-2.892861041	-0.212345175
H 	1.038144013	-3.928963882	-0.887786923
H 	1.457695004	-4.250558770	0.796199212
H 	2.407397888	-4.998075702	-0.508138615
H 	3.266663217	-2.752350254	-1.213485445
H 	3.685865220	-3.073804561	0.458681357
I 	-0.399213373	0.622225340	1.282680303
I 	-1.876925921	2.856242896	2.099435389
