35

H 	1.982999530	0.967851587	0.103879762
C 	0.000000000	0.000000000	0.000000000
C 	1.501300249	0.000000000	0.000000000
C 	2.432688791	-1.106263816	0.000000000
O 	3.569007715	-0.998765093	0.596657057
H 	-0.337478231	0.126499072	-1.043550427
H 	-1.616546816	1.293299163	0.699675906
H 	-0.108729284	2.165837075	0.334414700
C 	-0.525312985	1.249125693	0.766641038
H 	-0.235022577	1.196173956	1.819845488
N 	2.166418058	-2.303602172	-0.584623507
C 	3.079092668	-3.432167610	-0.351403459
C 	1.174094310	-2.504291188	-1.644333116
H 	3.544066916	-3.332416027	0.629026230
H 	3.870380931	-3.459419864	-1.112778526
H 	2.497620504	-4.358150436	-0.405639124
H 	0.405617284	-3.214375257	-1.321023514
H 	1.681787771	-2.907394478	-2.530186966
H 	0.704107140	-1.563053658	-1.920791099
C 	-0.205401535	-1.906797022	1.704730983
C 	-0.845257921	-3.046133622	2.198123379
C 	-1.962628018	-3.568354200	1.536113572
C 	-2.441408405	-2.944885296	0.379682043
C 	-1.779793468	-1.813241167	-0.085123831
C 	-0.656016558	-1.264681183	0.539630131
H 	0.655759919	-1.501530530	2.228988457
H 	-0.474079586	-3.522426396	3.102088248
H 	-2.465237232	-4.453929276	1.917401173
H 	-3.307522124	-3.318614585	-0.159811312
F 	-2.252360924	-1.218442896	-1.236297034
Sn	4.454918235	0.505460487	2.023588937
Cl	4.538868594	1.949749229	0.120673055
Cl	6.042820761	-1.237519407	2.283551371
Cl	5.466321292	2.053187621	3.556392377
Cl	2.373734541	0.351357406	3.216953391
