35

H 	1.375366750	1.419439240	1.731898560
C 	3.364412020	1.505991810	0.789181650
C 	1.931805270	1.059559790	0.870651700
C 	1.113800270	0.315330830	-0.060152590
O 	-0.157938520	0.527064330	-0.118146950
H 	3.966224590	0.806322300	1.395501530
H 	4.564612790	3.196494390	1.489336570
H 	3.149417020	2.850423430	2.514688020
C 	3.511530390	2.897852480	1.481546670
H 	2.930007550	3.649788630	0.940434600
N 	1.615277170	-0.606820960	-0.925523470
C 	0.739424580	-1.155048550	-1.973461340
C 	2.889771730	-1.310951870	-0.738552990
H 	-0.005914470	-0.411348290	-2.255489130
H 	0.219552630	-2.055282240	-1.617843030
H 	1.362291920	-1.417297070	-2.835277480
H 	3.569306990	-1.101085700	-1.571810570
H 	2.692635960	-2.390576460	-0.702177030
H 	3.362318830	-1.019088350	0.197595590
C 	3.291632960	2.102576890	-1.700736740
C 	3.881490350	2.163481330	-2.965601970
C 	5.180931300	1.677385710	-3.159634450
C 	5.890847120	1.133288430	-2.083379420
C 	5.272657040	1.083703420	-0.837545770
C 	3.974441680	1.550273870	-0.603843730
H 	2.285155990	2.486965410	-1.551439730
H 	3.329247320	2.594159530	-3.797770910
H 	5.645011420	1.724744330	-4.142155470
H 	6.901951630	0.750701200	-2.197714760
F 	5.975229520	0.521432880	0.212061130
Sn	-1.471695740	2.185752450	0.663833010
Cl	-1.035784240	1.263813490	2.831835250
Cl	-3.040314810	1.126261290	-0.766769870
Cl	-2.903595880	3.955394330	1.433895230
Cl	0.176260720	3.664778730	-0.288978770
