28

H 	1.925810908	0.934147968	-0.074268188
C 	0.000000000	0.000000000	0.000000000
C 	1.380157339	0.000000000	-0.000000000
C 	2.172709486	-1.202378533	-0.000000000
O 	3.422064056	-1.156929315	-0.188600737
H 	-0.498030549	-0.956862030	0.139042908
H 	-0.848765746	0.698622352	-2.544301989
H 	-1.103297168	-1.127018356	-2.298220266
H 	0.599822227	-0.454634175	-2.702314209
C 	-0.424151588	-0.285732347	-2.388550596
C 	1.544427030	-2.565125779	0.203971257
H 	0.951817981	-2.830680721	-0.682730725
H 	0.875244171	-2.582183939	1.071187912
H 	2.334405211	-3.308168203	0.330415460
C 	-2.256154125	0.893523091	0.480978932
C 	-3.169539564	1.924296679	0.681039818
C 	-2.749738323	3.256573354	0.574327301
C 	-1.416836480	3.545427577	0.268136498
C 	-0.523929815	2.498556045	0.076679526
C 	-0.896842210	1.143298473	0.177395064
H 	-2.582472596	-0.141620111	0.559365598
H 	-4.204870552	1.693866252	0.917805869
H 	-3.454962373	4.069939900	0.725468037
H 	-1.058628025	4.566811958	0.173208360
F 	0.766102851	2.821283237	-0.238140617
Zn	4.397861471	0.375867276	-1.203522482
Cl	3.306199859	0.473346291	-3.079101195
Cl	5.993549291	1.208565973	-0.037664331
