28

H 	1.437859308	1.988865863	-0.966115084
C 	3.358133727	1.218146971	-0.413453898
C 	1.985560532	1.154087666	-0.542966484
C 	1.193854760	0.054748167	-0.054594004
O 	-0.068238813	0.124760619	-0.027376724
H 	3.865185992	0.330918320	-0.041062138
H 	3.938013836	3.059874758	1.574944179
H 	4.211571323	1.343745055	2.237040547
H 	2.477484666	2.047086041	2.117612730
C 	3.529159755	2.097744866	1.858941124
C 	1.836053449	-1.215358585	0.462931702
H 	2.331838042	-1.009564228	1.421989383
H 	2.592263193	-1.603260585	-0.228328211
H 	1.061480281	-1.967547474	0.625455519
C 	5.654831759	1.888474770	-1.042575885
C 	6.587142347	2.748599716	-1.615090996
C 	6.162368415	3.956159733	-2.184255026
C 	4.805591222	4.292158768	-2.175469157
C 	3.894500293	3.414751338	-1.601058492
C 	4.271948396	2.187499520	-1.020269145
H 	5.984539432	0.952347684	-0.596360025
H 	7.640889094	2.482751826	-1.618139700
H 	6.881907572	4.637281754	-2.631564554
H 	4.442397596	5.222350723	-2.603702757
F 	2.579552498	3.786692924	-1.596520504
Zn	-1.140412257	1.906694476	0.055496474
Cl	-0.250743642	2.917016601	1.760419259
Cl	-2.602894933	2.025522249	-1.508426911
