12

C 	  0.973816	  0.762394	 -0.167846
C 	  1.816897	 -0.429077	  0.098771
H 	  1.395271	 -1.311641	 -0.393563
C 	 -0.446609	  0.798503	 -0.373536
H 	  1.429215	  1.753272	 -0.160305
O 	 -1.128362	  1.775536	 -0.585957
C 	  1.941379	 -0.721923	  1.627104
H 	  2.605617	 -1.579678	  1.781006
H 	  0.959614	 -0.956710	  2.049396
H 	  2.356424	  0.140407	  2.160406
Cl	 -1.271497	 -0.877467	 -0.282719
H 	  2.821849	 -0.249970	 -0.306074
