12

C 	0.071605640	0.418257980	0.141705580
C 	0.895323030	-0.799576200	0.339112870
H 	0.355052260	-1.688977380	0.004814480
C 	-1.251530030	0.531537510	-0.407610380
H 	0.487035840	1.381433760	0.444895390
O 	-1.883406940	1.552875410	-0.569026210
C 	1.364514190	-0.964011670	1.811954350
H 	2.019792610	-1.838170510	1.897159370
H 	0.505665910	-1.107422170	2.476705360
H 	1.921148730	-0.082756600	2.152244140
Cl	-2.024741370	-1.096124210	-0.903426140
H 	1.796171880	-0.705920560	-0.294656830
