31

H 	1.537327170	2.354856830	0.807275570
C 	3.561232750	1.453427340	0.459264990
C 	2.067068710	1.485579620	0.431688050
C 	1.246944700	0.470506760	-0.159981090
O 	-0.008884960	0.503637270	-0.225604390
H 	3.889008560	0.416058710	0.607899010
H 	5.229505530	2.290693680	1.582193250
H 	3.774479520	1.994853650	2.566702890
C 	4.134954800	2.335361720	1.588805310
H 	3.836359670	3.382248110	1.457900070
O 	1.922137840	-0.586239570	-0.666975690
C 	1.105564580	-1.629911810	-1.286485100
H 	0.532724430	-1.209359690	-2.118046320
H 	0.419402340	-2.054620400	-0.547781840
H 	1.822687900	-2.373592080	-1.635472910
C 	5.027125290	2.661509110	-3.456387880
C 	4.177911120	3.508095030	-2.734332600
C 	3.699292980	3.118708720	-1.479829160
C 	4.070236950	1.878677440	-0.930163690
C 	4.906326880	1.028039030	-1.667545560
C 	5.391443580	1.420486810	-2.919003000
H 	3.883474250	4.469720610	-3.149750770
H 	3.033556950	3.780758480	-0.930390220
H 	5.183392640	0.059442190	-1.254969870
H 	6.052698870	0.758168720	-3.474497040
H 	5.400340690	2.964228420	-4.432621830
Ti	-1.620245220	1.807249590	0.438499230
Cl	-3.263385000	3.163548810	1.134414030
Cl	-2.932770870	0.245659260	-0.479537540
Cl	-0.753033030	1.446315160	2.492558620
Cl	-0.624036370	3.336794430	-0.892804540
