26

H 	1.921364164	0.920698044	-0.169893819
C 	0.000000000	0.000000000	0.000000000
C 	1.372742137	0.000000000	0.000000000
C 	2.214688580	-1.195146544	0.000000000
O 	3.352179612	-1.208324896	-0.532995268
H 	-0.528145146	-0.921626220	0.240466930
H 	0.105121910	0.218427358	-2.709994173
H 	-1.537531352	-0.517116123	-2.228805307
H 	-0.007341045	-1.582454529	-2.273843714
C 	-0.456626938	-0.595397064	-2.267404607
N 	1.724379194	-2.346092667	0.568469801
H 	0.981872583	-2.299871001	1.254794813
H 	2.358524289	-3.136153953	0.616838220
C 	-2.467968919	3.509653379	0.116778722
C 	-1.156743482	3.597943993	-0.369405064
C 	-0.344639510	2.465637166	-0.416264623
C 	-0.828784149	1.217902729	0.025087493
C 	-2.153312452	1.139513191	0.496494031
C 	-2.963891454	2.275141393	0.549288396
H 	-0.769315305	4.552061819	-0.719692817
H 	0.661986265	2.546321334	-0.818135821
H 	-2.544741816	0.178663994	0.827351088
H 	-3.982308445	2.196159623	0.923206627
H 	-3.098907736	4.394911343	0.150305868
I 	3.721411871	0.508036741	-2.564636189
I 	4.034129693	2.234795028	-4.743006308
