26

H 	1.507318850	2.200339460	-0.284451780
C 	3.278737180	1.037807850	-0.559070280
C 	1.952569550	1.210583780	-0.251597610
C 	1.023304400	0.180890270	0.210120390
O 	-0.171409410	0.443147560	0.501954780
H 	3.677030180	0.029293000	-0.672227740
H 	4.089308480	1.949907760	1.885679440
H 	5.307174020	0.676635500	1.293023670
H 	3.687796390	0.139498790	2.052932340
C 	4.301728070	0.921347970	1.618729900
N 	1.474766200	-1.108721980	0.374926430
H 	2.347104580	-1.417386830	-0.034027010
H 	0.774798330	-1.814492410	0.575322360
C 	5.879244470	4.053264500	-2.170351150
C 	4.685001980	4.429695800	-1.540542140
C 	3.832830880	3.462647830	-1.008302410
C 	4.154265010	2.092610610	-1.101763220
C 	5.361498690	1.728870920	-1.731394060
C 	6.214580100	2.697627950	-2.264371730
H 	4.420822080	5.482030350	-1.458702980
H 	2.916702500	3.774913980	-0.513588490
H 	5.627614900	0.674947530	-1.804931470
H 	7.138645160	2.396242700	-2.753581120
H 	6.542738460	4.811287330	-2.581309890
I 	-1.161051620	2.927655650	0.560868660
I 	-2.225036990	5.511172160	0.655557390
