12

C 	0.136776487	0.866420531	0.277819976
C 	1.665536576	-1.454384248	0.652775654
H 	0.604872987	-3.116857578	0.016032436
C 	-2.351834082	0.909723605	-0.778767474
H 	0.928817398	2.686651977	0.831864999
O 	-3.226964890	-1.138334357	-1.374399511
C 	2.566217842	-1.835995542	3.398468345
H 	3.733700090	-3.537873441	3.537310303
H 	0.960122601	-2.047898091	4.683657854
H 	3.696563192	-0.229715108	4.047679975
H 	3.304574846	-1.337829361	-0.525562409
H 	-3.435277299	2.593881618	-1.058543562
