27

H 	1.895588856	1.584348995	1.550986963
C 	3.697953419	0.949974645	0.387200214
C 	2.237205496	0.969715997	0.719601969
C 	1.211251608	0.326806230	-0.041476158
O 	-0.008300149	0.617647271	0.138798884
H 	4.006236609	-0.094665920	0.219284916
H 	5.618041084	1.490644096	1.277103913
H 	4.395372373	0.966425483	2.460348452
C 	4.554466224	1.531113629	1.534021930
H 	4.288540749	2.578479030	1.717594172
C 	1.560295444	-0.708685889	-1.094947586
H 	2.321383108	-1.412396988	-0.738479788
H 	1.971795591	-0.199868448	-1.976995711
H 	0.656783068	-1.249303906	-1.385609777
C 	3.357535060	2.950861600	-1.161651216
C 	3.583739716	3.642026583	-2.353895214
C 	4.399611409	3.054555129	-3.317101726
C 	4.991845301	1.808505716	-3.130867332
C 	4.750785157	1.130708611	-1.931504074
C 	3.940969790	1.691909393	-0.934054555
H 	2.708003686	3.393736590	-0.410226648
H 	3.133848925	4.613137220	-2.541054238
F 	4.625623359	3.722883638	-4.491010447
H 	5.620858687	1.384820380	-3.909086517
H 	5.201579362	0.152650284	-1.773394207
I 	-0.512514527	3.145219662	0.793335343
I 	-1.058669795	5.856234549	1.210104698
