31

H 	2.884520661	0.631289994	0.006180221
C 	4.437565891	-0.394043153	1.011301907
C 	3.234754374	-0.320431635	0.402241317
C 	2.357414381	-1.457668475	0.180397234
O 	1.264905600	-1.309950889	-0.435120311
H 	4.808780430	-1.349810491	1.382655705
C 	5.380226233	0.762954533	1.147823687
C 	6.593689799	0.522115557	0.249439065
C 	6.461295293	0.642290640	-1.143463902
C 	7.555211747	0.406079229	-1.980017262
C 	8.790367446	0.036229146	-1.434287985
C 	8.926675933	-0.092773707	-0.048157247
C 	7.831452328	0.146776021	0.789275326
H 	4.876734177	1.696926673	0.873182545
H 	5.713607398	0.848107973	2.190822557
H 	5.500908398	0.922704541	-1.572481731
H 	7.443054603	0.510290442	-3.057010498
H 	9.641524816	-0.147876189	-2.085965416
H 	9.884804491	-0.375356180	0.382694883
H 	7.943183385	0.052389807	1.868400231
C 	1.661751578	-3.919551613	0.320690842
C 	2.706587246	-2.850750156	0.661707339
H 	1.513345599	-3.995992829	-0.760849091
H 	0.693294454	-3.683667107	0.772410032
H 	1.993160670	-4.893213110	0.696439458
H 	3.686455554	-3.111968689	0.235990149
H 	2.867092370	-2.793398436	1.748421371
Al	0.399513193	0.199202782	-1.182900596
F 	1.657773273	1.009856502	-1.965178219
F 	-0.149699653	0.999820530	0.189216606
F 	-0.756286768	-0.481886168	-2.182270225
