24

H 	1.582161890	2.047850340	0.569783890
C 	3.619146800	1.189883480	0.306653800
C 	2.128744960	1.148924750	0.277850120
C 	1.278800170	0.104472990	-0.184858280
O 	0.058806940	0.111252560	-0.253055770
H 	4.009609880	0.171177830	0.225165280
H 	5.255110020	1.913869270	1.543388960
H 	3.893309510	1.236904090	2.471339840
C 	4.162996910	1.840956860	1.597256260
H 	3.759841720	2.849421940	1.743156060
Br	2.221691750	-1.593552600	-0.769419630
C 	4.776712040	3.290465640	-3.326021550
C 	4.170691920	3.993224710	-2.277633850
C 	3.792355940	3.323358780	-1.111366890
C 	4.027740330	1.943228530	-0.974492510
C 	4.615171700	1.241104000	-2.039259940
C 	4.999042850	1.913170910	-3.203331460
H 	3.988964220	5.062060490	-2.369490700
H 	3.318857390	3.879620640	-0.305316850
H 	4.776015640	0.169068380	-1.949953600
H 	5.470479670	1.362132510	-4.014770770
H 	5.069392670	3.811996480	-4.235058050
I 	-1.407734670	2.511236570	-0.065243610
I 	-2.776930290	4.908395360	0.061901200
