24

H 	1.766206089	1.792052102	1.039885687
C 	3.791377166	1.094235050	0.460353751
C 	2.317058874	0.944432741	0.629789384
C 	1.468925050	-0.079111323	0.115605319
O 	0.262832764	-0.031727902	-0.044687665
H 	4.229769690	0.126591613	0.201685637
H 	5.545286158	1.843393781	1.504825710
H 	4.422585141	0.922052944	2.534198334
C 	4.488379237	1.648740144	1.717217225
H 	4.030229148	2.582498887	2.061166016
Br	2.418375761	-1.820663301	-0.369337603
C 	3.829679839	3.589272476	-3.101625188
C 	3.719023681	4.184386286	-1.839632992
C 	3.737744879	3.396332912	-0.688323131
C 	3.879859076	2.001155085	-0.782608195
C 	3.981244306	1.410806670	-2.054102437
C 	3.966261340	2.200546613	-3.205143386
H 	3.601294058	5.261925050	-1.754758776
H 	3.633141800	3.870706838	0.283807646
H 	4.058229054	0.329118863	-2.136194082
H 	4.049086092	1.731336720	-4.182847610
H 	3.794511318	4.203482799	-3.998000477
I 	-0.086380580	2.459551838	-1.589695463
I 	-0.113739979	4.769107626	-3.084355752
