66

C 	0.000000000	0.000000000	0.000000000
C 	0.052252020	-1.497007605	0.000000000
C 	1.247798845	-2.306592277	0.000000000
O 	1.199732560	-3.566823827	0.051764289
H 	0.055671391	-4.905917476	5.300393861
H 	0.868660655	0.393465490	0.550233940
H 	-0.879077006	-2.050646052	-0.032523724
H 	-2.347132931	-6.144703402	-2.951771827
H 	-0.749349477	-5.567391879	-2.440609009
H 	1.084169551	-4.515450477	3.908830536
H 	-1.517841577	-6.907188421	-1.569709501
C 	0.081716669	0.563682202	-1.456682707
H 	-0.782542521	0.228902856	-2.036381411
H 	-0.003255900	-5.914645231	3.844201997
H 	0.300128295	-1.729243169	2.619719710
H 	0.083936156	1.659258908	-1.426964345
H 	0.991010351	0.217027053	-1.961174233
N 	-1.515957017	-4.717224265	0.027549104
C 	-1.937137004	-4.569199849	1.319803201
N 	-0.961959066	-4.100537928	2.154313568
C 	-2.397741312	-4.979517187	-1.117065757
H 	-0.554275991	-4.425617413	-0.177234287
C 	-1.036878624	-4.025157982	3.618123611
H 	-0.044268716	-3.962132171	1.730250583
H 	-3.289455046	-5.455500590	-0.698881396
C 	0.095639980	-4.885965101	4.207306750
C 	-1.709035868	-5.957835852	-2.081093793
H 	-4.748593943	-3.670509544	-0.793553201
H 	-1.998850458	-4.475203539	3.885056536
C 	-2.835769894	-3.670735381	-1.778255017
C 	-1.993869121	-2.963111041	-2.651604547
C 	-2.417375443	-1.767577874	-3.240893398
C 	-3.688887756	-1.255017838	-2.958344052
C 	-4.528565985	-1.943943158	-2.076658594
C 	-4.103863367	-3.141363333	-1.490838363
H 	-1.002468742	-3.347049656	-2.881391689
H 	-1.757296819	-1.239821519	-3.926369779
H 	-4.019103984	-0.325740409	-3.417463190
H 	-5.516039854	-1.549886477	-1.844912936
C 	-1.075046283	-2.537133475	4.122139059
C 	-1.206366489	-2.525533933	5.662577058
H 	-1.376285896	-1.500777896	6.015238510
H 	-0.304516323	-2.901177785	6.158549608
H 	-2.057714113	-3.136825153	5.988415070
C 	-2.312322740	-1.837728974	3.518802686
H 	-3.234380156	-2.349000909	3.814242197
H 	-2.363188243	-0.797089095	3.857304254
H 	-2.275379546	-1.831502315	2.427005780
C 	0.196314742	-1.764157819	3.710076402
H 	1.104412922	-2.211264473	4.131520871
H 	0.136407777	-0.727786554	4.063590071
S 	-3.515409556	-4.932759169	1.835418312
N 	2.471180221	-1.676862001	-0.048217375
H 	3.302740789	-2.250864325	0.009968733
H 	2.568139368	-0.671451159	-0.038802397
C 	-3.548879524	1.465748444	2.022263561
C 	-3.667891489	0.585946729	0.940432759
C 	-2.526707416	0.114264961	0.289499937
C 	-1.249422597	0.510911183	0.712223640
C 	-1.137696150	1.388577599	1.798087032
C 	-2.279862108	1.867317059	2.449279259
H 	-4.649172951	0.256509622	0.606935695
H 	-2.639235787	-0.571583636	-0.544738039
H 	-0.151031874	1.694275833	2.143059857
H 	-2.176407452	2.545360737	3.293923531
H 	-4.437829291	1.828278401	2.533526080
