66

C 	0.877833470	-0.597901910	1.832028900
C 	1.941237090	-1.632704210	1.616118760
C 	3.360955940	-1.386115000	1.509743900
O 	4.194323470	-2.326826610	1.384717510
H 	4.807925630	-4.541741790	6.411165540
H 	1.291577560	0.229491730	2.429304350
H 	1.642724310	-2.668604580	1.498978390
H 	3.087654670	-6.288520790	-1.951215560
H 	3.873169380	-4.811752650	-1.358669090
H 	5.130486930	-3.423759550	5.071421950
H 	4.365725020	-6.387768050	-0.710590900
C 	0.398427380	0.008463420	0.471612760
H 	-0.057362830	-0.770547550	-0.145966660
H 	5.327700890	-5.170824940	4.836729090
H 	2.523247170	-1.890499220	4.173499070
H 	-0.347019880	0.790044800	0.660260410
H 	1.239049890	0.441861110	-0.083421050
N 	3.024478770	-5.032687470	1.215062360
C 	2.748455730	-5.345888730	2.518399020
N 	3.219207880	-4.416482240	3.403387940
C 	2.448744430	-5.712948990	0.046243110
H 	3.499678310	-4.138112880	1.050506050
C 	3.252736820	-4.545553560	4.865650360
H 	3.737928620	-3.637694220	2.995564490
H 	2.194112260	-6.721325570	0.386477090
C 	4.715739390	-4.406775440	5.329112420
C 	3.508699240	-5.803563730	-1.063324060
H 	-0.095806170	-6.482320150	0.580419400
H 	2.906964340	-5.563286220	5.077453870
C 	1.152680170	-5.030153030	-0.400732330
C 	1.161477480	-3.846873000	-1.158358710
C 	-0.036523290	-3.243136040	-1.555173300
C 	-1.264746400	-3.809662780	-1.192716820
C 	-1.283833270	-4.979720930	-0.424911530
C 	-0.084071270	-5.582678680	-0.030308110
H 	2.107342790	-3.393393190	-1.448231850
H 	-0.011592220	-2.334366020	-2.153845670
H 	-2.196818780	-3.340935870	-1.502220360
H 	-2.233533450	-5.424624800	-0.133058900
C 	2.236754890	-3.564811120	5.557879410
C 	2.271559590	-3.793887080	7.087209640
H 	1.471437500	-3.217945200	7.569207390
H 	3.221826140	-3.477640810	7.532665240
H 	2.114111540	-4.853186780	7.328640140
C 	0.812677650	-3.877623970	5.047130450
H 	0.535389800	-4.913534000	5.268806750
H 	0.084768000	-3.208855840	5.520059260
H 	0.737307180	-3.741092380	3.965479370
C 	2.572404250	-2.088904260	5.250498620
H 	3.570363430	-1.809978940	5.610075940
H 	1.843063040	-1.428750500	5.735885440
S 	1.910079750	-6.747507170	2.989175320
N 	3.809394120	-0.084392200	1.560277200
H 	4.808853370	0.076280670	1.532704290
H 	3.189607310	0.702738470	1.693849560
C 	-2.474786560	-2.214037490	4.068124890
C 	-2.066979050	-2.820839750	2.874409340
C 	-0.989854990	-2.301485020	2.153317030
C 	-0.299796800	-1.171081340	2.617550870
C 	-0.711501440	-0.570708980	3.814531900
C 	-1.794875460	-1.084918910	4.536078750
H 	-2.580901330	-3.705984640	2.505688940
H 	-0.687062720	-2.788857600	1.230853770
H 	-0.177160980	0.301331530	4.189962020
H 	-2.099286020	-0.609388560	5.466678740
H 	-3.309909620	-2.622951130	4.633113780
