32

H 	2.633111713	0.340391849	0.724756327
C 	4.342587919	-0.904228016	0.826523274
C 	3.055356168	-0.650113031	0.550478681
C 	2.170313279	-1.552709732	-0.227229030
O 	1.586922466	-1.092078108	-1.256756146
H 	4.768700100	-1.877064807	0.573796583
C 	5.308631383	0.107842819	1.377032525
C 	6.457010272	0.365734139	0.405127649
C 	6.187751075	0.741540345	-0.920358214
C 	7.231277606	0.983737683	-1.816719234
C 	8.560890236	0.851971530	-1.399258172
C 	8.838902318	0.473134774	-0.081685284
C 	7.791279474	0.228102245	0.813414536
H 	4.776244055	1.042813405	1.597187959
H 	5.724705656	-0.262354898	2.325081460
H 	5.162314654	0.836888577	-1.267699432
H 	6.998894039	1.269431975	-2.839903827
H 	9.374346483	1.040233482	-2.096643418
H 	9.869600688	0.366946749	0.250640511
H 	8.012945074	-0.066558591	1.838303154
N 	2.001990567	-2.849841189	0.113297194
C 	1.228829363	-3.736981536	-0.771231272
C 	2.404091835	-3.428986411	1.401799386
H 	1.234767953	-3.333755299	-1.783578413
H 	0.190415199	-3.819030343	-0.423794848
H 	1.688950702	-4.730451046	-0.758310553
H 	3.196395711	-4.174580951	1.258552264
H 	1.536969251	-3.924383563	1.855793290
H 	2.760077536	-2.647723877	2.071302559
Zn	2.118720192	0.747262373	-2.046393955
Cl	3.480468948	0.394281921	-3.682496025
Cl	1.210990433	2.294929543	-0.836948077
