33

H 	1.632279000	-2.219859000	-0.973345000
C 	3.438830000	-1.105400000	-1.027366000
C 	2.088403000	-1.238071000	-0.909842000
C 	1.170779000	-0.166169000	-0.614494000
O 	-0.031907000	-0.422055000	-0.334815000
H 	3.881670000	-0.114144000	-0.958547000
H 	2.933343960	-2.396587850	1.310243080
H 	4.620407960	-1.587854850	1.133681080
H 	3.113689960	-0.549666850	1.551409080
C 	3.553245960	-1.508954850	1.302837080
C 	0.961719000	2.081951000	0.556834000
C 	1.568112000	1.297963000	-0.623159000
H 	-0.128068000	1.996540000	0.558205000
H 	1.333817000	1.693134000	1.511880000
H 	1.234624000	3.140040000	0.485733000
H 	1.194178000	1.709175000	-1.573819000
H 	2.655971000	1.406960000	-0.643875000
C 	6.310600000	-4.196384000	-1.686910000
C 	4.956573000	-4.533641000	-1.544520000
C 	4.004247000	-3.541893000	-1.329493000
C 	4.388412000	-2.183297000	-1.255043000
C 	5.756548000	-1.861038000	-1.399876000
C 	6.708290000	-2.856146000	-1.615044000
H 	4.647587000	-5.574758000	-1.599141000
H 	2.961033000	-3.820855000	-1.212900000
H 	6.063603000	-0.818538000	-1.339509000
H 	7.756954000	-2.590745000	-1.726721000
H 	7.050235000	-4.976135000	-1.853918000
Ti	-1.305330000	-2.097595000	0.095281000
Cl	-2.546226000	-3.919546000	0.531401000
Cl	0.272832000	-2.585321000	1.650422000
Cl	-0.986023000	-2.603810000	-2.084282000
Cl	-2.854584000	-0.573817000	0.604022000
