33

H 	1.632279287	2.219858547	-0.973345278
C 	3.438830124	1.105399685	-1.027366261
C 	2.088402600	1.238071124	-0.909842446
C 	1.170778503	0.166168820	-0.614493527
O 	-0.031907016	0.422055098	-0.334815107
H 	3.881670135	0.114143836	-0.958546757
H 	3.385116621	1.844590721	1.933431552
H 	5.072181302	1.035858345	1.756869856
H 	3.565463496	-0.002329662	2.174597934
C 	4.005019253	0.956957767	1.926026290
C 	0.961719499	-2.081951344	0.556833722
C 	1.568112038	-1.297963118	-0.623158976
H 	-0.128068187	-1.996539902	0.558205495
H 	1.333816805	-1.693134140	1.511879932
H 	1.234623707	-3.140039728	0.485732916
H 	1.194177964	-1.709175484	-1.573818900
H 	2.655971426	-1.406960165	-0.643875105
C 	6.310600213	4.196384177	-1.686910117
C 	4.956572974	4.533641431	-1.544520318
C 	4.004246716	3.541893259	-1.329492814
C 	4.388411530	2.183297012	-1.255042544
C 	5.756547717	1.861037868	-1.399876048
C 	6.708290347	2.856145638	-1.615044447
H 	4.647586848	5.574757995	-1.599140949
H 	2.961032992	3.820854632	-1.212899586
H 	6.063602832	0.818537773	-1.339508948
H 	7.756954490	2.590744519	-1.726720987
H 	7.050235451	4.976135179	-1.853918081
Ti	-1.305330266	2.097595482	0.095281238
Cl	-2.546226440	3.919545962	0.531400735
Cl	0.272831559	2.585321428	1.650422024
Cl	-0.986022643	2.603809852	-2.084282358
Cl	-2.854583976	0.573816612	0.604022419
