33

H 	1.594640378	-2.258215874	-1.002912226
C 	3.403795764	-1.134965077	-0.904315145
C 	2.031121470	-1.270000567	-0.910381222
C 	1.088004518	-0.208828056	-0.735988659
O 	-0.146022582	-0.464623344	-0.589173438
H 	3.833586230	-0.136242330	-0.900956688
H 	2.867569067	-1.627065589	1.791632108
H 	4.719176992	-1.624020591	1.528276997
H 	3.788311669	-0.013294361	1.649694493
C 	3.775859945	-1.092067632	1.540668110
C 	1.167916416	1.859154362	0.711657238
C 	1.471279962	1.255918517	-0.679911341
H 	0.107725489	1.740046435	0.952711963
H 	1.752748234	1.362644447	1.493953557
H 	1.414180488	2.926178693	0.721540007
H 	0.865337489	1.770853641	-1.436988873
H 	2.521966152	1.403674196	-0.945834332
C 	6.242527740	-4.214999273	-1.784829257
C 	4.905047542	-4.557999992	-1.542854318
C 	3.967083716	-3.571012493	-1.248988188
C 	4.350943495	-2.213703368	-1.191339108
C 	5.702342272	-1.884244849	-1.431197043
C 	6.638394027	-2.873250889	-1.729631109
H 	4.595087721	-5.599532386	-1.583228130
H 	2.936716073	-3.856136029	-1.056855491
H 	6.010310590	-0.841046562	-1.385285109
H 	7.674522241	-2.601070510	-1.916844655
H 	6.970520051	-4.989738447	-2.014142522
Ti	-1.390707327	-2.130396516	-0.156305231
Cl	-2.582925107	-3.976178505	0.335532187
Cl	0.050232893	-2.432847380	1.584996541
Cl	-0.870844609	-2.806878776	-2.250890546
Cl	-3.050603157	-0.656629295	0.073518751
