27

H 	1.769092548	-1.183654121	-0.088672648
C 	0.000000000	0.000000000	0.000000000
C 	0.684280523	-1.178047249	0.000000000
C 	0.114980482	-2.495758115	0.000000000
O 	0.729198949	-3.552698210	-0.115457559
H 	-1.083225084	-0.040469317	0.108450946
H 	0.374615395	-0.749137473	-2.786379191
H 	-0.487939569	0.903723629	-2.926620570
H 	-1.444263832	-0.605032684	-2.380486088
C 	-0.495944497	-0.130362281	-2.603652015
I 	-2.093225087	-2.683997849	0.220432152
C 	0.843308538	1.526658606	1.717100055
C 	0.633408340	1.364697854	0.175960654
C 	-0.332312149	2.473973656	-0.299873984
C 	1.992402788	1.493475785	-0.545293586
H 	1.883505741	1.324612221	-1.621373234
H 	1.251563286	2.523585886	1.921640146
H 	1.542140443	0.774485373	2.097099851
H 	-0.103064165	1.424887999	2.260631409
H 	0.072226834	3.459666031	-0.043993351
H 	-1.313028113	2.374904402	0.181117538
H 	-0.478469359	2.439546590	-1.383384622
H 	2.396805231	2.500473258	-0.392353951
H 	2.729987092	0.779852560	-0.163408096
Zn	2.683702701	-3.935962368	-1.005629996
Cl	3.491078500	-5.575618506	0.084029478
Cl	2.802686393	-2.419225307	-2.529344692
