25

H 	1.905490609	0.918705050	0.204982241
C 	0.000000000	0.000000000	0.000000000
C 	1.362754033	0.000000000	0.000000000
C 	2.181752440	-1.189469039	0.000000000
O 	3.296598494	-1.234038718	0.647787302
H 	-0.563023427	-0.930087634	-0.061757089
C 	-2.200235118	1.053866724	0.446488451
H 	-2.715105913	1.928848353	0.037695986
H 	-2.356501670	1.025158394	1.534719459
H 	-2.646176349	0.156409478	0.005589681
N 	-0.781588825	1.108972280	0.091813571
H 	-0.303191480	1.986729017	0.274791966
N 	1.835768713	-2.327945360	-0.662067499
C 	2.609875602	-3.560097546	-0.438135771
C 	0.922799917	-2.364539148	-1.809860142
H 	3.045135461	-3.543478292	0.560445509
H 	3.420491325	-3.651707024	-1.174120363
H 	1.935614891	-4.417149539	-0.540894312
H 	-0.004230529	-2.901863454	-1.568331684
H 	1.416468367	-2.889631619	-2.637458794
H 	0.680985299	-1.350960711	-2.130016834
B 	3.759273518	-0.169189390	1.766160450
F 	2.717171931	-0.087325719	2.691492933
F 	3.973943949	1.046010853	1.104051731
F 	4.912853286	-0.723694393	2.278256686
