25

H 	2.223626310	0.454561890	0.979908450
C 	4.099636920	-0.428222020	0.500863120
C 	2.739992840	-0.424932560	0.603683370
C 	1.876013430	-1.422492720	0.016127470
O 	0.720862730	-1.109075170	-0.468135650
H 	4.622030560	-1.238198580	-0.007304590
C 	6.310312780	0.700043560	0.527127900
H 	6.899040680	1.189779950	1.309573560
H 	6.379021050	1.294450790	-0.396299790
H 	6.742826850	-0.288378030	0.339401330
N 	4.927072200	0.539805830	0.981035790
H 	4.479593620	1.370212200	1.361513720
N 	2.221268940	-2.737786600	-0.075717670
C 	1.391181080	-3.652402850	-0.879807700
C 	3.209109640	-3.391858030	0.792053170
H 	0.894464250	-3.094723460	-1.673735040
H 	0.626132580	-4.135926360	-0.256092050
H 	2.041453610	-4.422385680	-1.309468970
H 	4.097003810	-3.703814820	0.224802090
H 	2.753330730	-4.287598570	1.233700170
H 	3.511060120	-2.718102650	1.594373270
B 	0.235807850	0.394636340	-0.797318510
F 	1.227417480	0.966170510	-1.600467820
F 	0.104460390	1.055011330	0.433089420
F 	-0.967613770	0.206684750	-1.448296010
