30

H 	1.922088624	0.936694940	-0.057167935
C 	0.000000000	0.000000000	0.000000000
C 	1.379815920	-0.000000000	0.000000000
C 	2.186584726	-1.182885483	-0.000000000
O 	3.440935484	-1.119809535	-0.162135579
H 	-0.518195780	-0.943512878	0.156394818
H 	-1.082355126	0.393542326	-2.532955426
H 	-0.716816385	-1.419545289	-2.321184529
H 	0.667652818	-0.228123641	-2.702196278
C 	-0.357029048	-0.398634425	-2.393363612
C 	1.585081570	-2.562561464	0.152481492
H 	0.833154885	-2.599578382	0.947502001
H 	2.382066003	-3.279276270	0.360874343
H 	1.096345523	-2.850847484	-0.788855219
C 	-2.211628524	1.031909575	0.413541587
C 	-3.055453065	2.131436803	0.555969512
C 	-2.512909216	3.404231772	0.391616334
C 	-1.165499589	3.609306173	0.091557573
C 	-0.335108239	2.500532629	-0.042527415
C 	-0.840157170	1.191522374	0.119749881
H 	-2.617365468	0.029497521	0.534353105
H 	-4.110516824	2.017530252	0.788353173
F 	-3.328906099	4.489244523	0.524319956
H 	-0.787784280	4.620334965	-0.032123235
H 	0.712139351	2.656463845	-0.284036632
Ti	4.905084936	0.321007900	-0.754916577
Cl	6.333502936	1.924613692	-1.423803917
Cl	4.419219187	1.316262227	1.216025974
Cl	6.363330893	-1.365214672	-0.730127004
Cl	3.542901130	0.571657789	-2.565585486
