30

H 	1.650948707	2.081817266	-0.874815095
C 	3.522276037	1.145022270	-0.432503646
C 	2.145507451	1.187540475	-0.513697474
C 	1.278809945	0.133729265	-0.079633726
O 	0.023853770	0.296255426	-0.031336803
H 	3.996535114	0.204660760	-0.160471819
H 	4.518627756	2.507172318	1.779749024
H 	4.068015650	0.778415712	2.303296069
H 	2.733094328	2.063464732	2.084105399
C 	3.759315556	1.750009114	1.932315948
C 	1.813277135	-1.205334164	0.378423498
H 	2.594299751	-1.587628289	-0.286915873
H 	0.989230439	-1.919632991	0.433342597
H 	2.247190498	-1.098032494	1.382560990
C 	5.799857287	1.848623796	-1.099379408
C 	6.705035944	2.766989173	-1.627150505
C 	6.223333816	4.011629767	-2.027407521
C 	4.877261483	4.362957764	-1.916676390
C 	3.985346999	3.432332340	-1.391955297
C 	4.427662335	2.156672041	-0.977269711
H 	6.157370131	0.872580317	-0.777554129
H 	7.761381733	2.535502008	-1.730512353
F 	7.099589240	4.921596655	-2.542043829
H 	4.548039945	5.347169641	-2.237745192
H 	2.938617318	3.705635581	-1.296923335
Ti	-1.386268003	1.897851552	-0.163715968
Cl	-2.755373819	3.677940175	-0.290891245
Cl	-0.768517028	1.983827189	-2.336779051
Cl	-2.928243438	0.394977641	0.414318738
Cl	-0.088463007	2.825474131	1.464814206
