66

C 	0.000000000	0.000000000	0.000000000
C 	1.461884643	-0.345680027	0.000000000
C 	2.546801290	0.623196809	0.000000000
O 	3.734871085	0.283891227	0.232564682
H 	4.107406622	-0.997819105	5.758576545
H 	-0.174047130	0.703166342	0.832311884
H 	1.768979418	-1.386495886	0.037880443
H 	5.609754911	-4.125596784	-2.364186251
H 	5.549311679	-2.386473991	-2.002689242
H 	4.101532125	0.099717703	4.365324560
H 	6.523112512	-3.459007562	-0.987006983
C 	-0.880382799	-1.247125102	0.234971028
H 	-0.736848002	-1.973369626	-0.570825883
H 	5.302906826	-1.198837276	4.465092457
H 	1.514621592	-0.153945818	2.680522294
H 	-1.938087107	-0.964827861	0.264809633
H 	-0.617101475	-1.728848258	1.181780485
N 	4.395387745	-2.619639074	0.449532630
C 	3.954787893	-2.939299448	1.727913547
N 	3.630037395	-1.831143810	2.487046024
C 	4.403274439	-3.635967779	-0.614275188
H 	4.255959291	-1.649356765	0.156331566
C 	3.329957644	-1.904909625	3.917452922
H 	3.774183481	-0.918190440	2.063537015
H 	4.551509144	-4.591185991	-0.100382244
C 	4.259766233	-0.940399606	4.676550162
C 	5.590038422	-3.386905582	-1.554580991
H 	2.159866798	-4.806127967	0.314565263
H 	3.569246133	-2.932667895	4.212907752
C 	3.036368438	-3.692111092	-1.307221889
C 	2.784608736	-3.082846803	-2.545309403
C 	1.507590460	-3.125083674	-3.119055873
C 	0.459494661	-3.773222126	-2.459154775
C 	0.698745304	-4.380308877	-1.219816586
C 	1.973641660	-4.340672409	-0.650630277
H 	3.586586875	-2.577337824	-3.076788926
H 	1.336144627	-2.658739943	-4.087577312
H 	-0.531470979	-3.809097636	-2.906731947
H 	-0.109251795	-4.889687764	-0.698200517
C 	1.795545659	-1.702655170	4.203133895
C 	1.521154081	-1.875209890	5.714381263
H 	0.440855032	-1.869633229	5.906090109
H 	1.965858152	-1.069378929	6.308475495
H 	1.920586809	-2.830270215	6.079382083
C 	1.005319499	-2.786164571	3.435261224
H 	1.315733426	-3.790807298	3.742458040
H 	-0.069854189	-2.679595592	3.628555104
H 	1.171921277	-2.708093131	2.357132522
C 	1.318919927	-0.306490736	3.748143479
H 	1.813680002	0.497173985	4.305605635
H 	0.237922454	-0.203915490	3.907073991
O 	3.866465350	-4.102144189	2.149271567
N 	2.233318167	1.950202531	-0.198241223
H 	1.360329036	2.214360765	-0.642184036
H 	3.018102120	2.585803921	-0.287479905
C 	-1.207600455	2.068434875	-3.630322206
C 	-0.474658249	0.877240781	-3.706384542
C 	-0.081575392	0.216294111	-2.540527517
C 	-0.418532995	0.734950950	-1.279187238
C 	-1.152856855	1.928484530	-1.210884136
C 	-1.547572303	2.592175395	-2.378983555
H 	-0.206248821	0.465021745	-4.677020690
H 	0.489549416	-0.706184346	-2.603634049
H 	-1.420956520	2.337636184	-0.237571299
H 	-2.118971639	3.515490735	-2.309700484
H 	-1.510803835	2.583622200	-4.539089054
