30

H 	1.569245310	1.821033380	1.284454410
C 	3.601064270	1.117475260	0.828625240
C 	2.108530840	0.974132490	0.865768270
C 	1.270653820	0.079594690	0.129080470
O 	0.055047430	0.384611850	-0.196209770
H 	4.134845290	0.165178160	0.776850930
H 	5.215550200	2.072591380	1.920407090
H 	3.914031650	1.421026500	2.956835760
C 	4.133215880	1.932553720	2.011584020
H 	3.657560960	2.920511490	2.043275090
N 	1.697440650	-1.159621170	-0.282977400
C 	0.868773740	-1.921685310	-1.231386590
C 	2.743754410	-1.927615540	0.405799650
H 	0.330557120	-1.234522690	-1.884118150
H 	0.134713300	-2.543768330	-0.700332230
H 	1.527494150	-2.569036310	-1.820109520
H 	3.657207420	-1.994522830	-0.200226080
H 	2.371571910	-2.943919260	0.582699860
H 	2.972577580	-1.475841560	1.371318130
C 	4.000742520	0.995991600	-1.666202950
H 	4.269270330	1.642835160	-2.507547840
H 	3.064449320	0.477095090	-1.924314860
H 	4.793455160	0.249992660	-1.531059240
N 	3.910181030	1.818451880	-0.456664950
H 	3.277974540	2.611042410	-0.597236350
Sn	-0.978992770	2.319423410	-0.613171290
Cl	-0.914435710	2.693266060	1.752608610
Cl	-2.579096070	0.851116950	-1.581466090
Cl	-2.145090520	4.362104390	-1.124073380
Cl	0.960075780	2.887931830	-1.934785640
