28

H 	1.736437900	2.097746530	0.774517860
C 	3.751648560	1.245689910	0.596953550
C 	2.263625000	1.178251290	0.532771850
C 	1.490325570	0.097953720	0.040190760
O 	0.232829530	0.198360660	-0.180815840
H 	4.217922490	0.256744470	0.535920400
H 	5.374579810	2.094190650	1.759709140
H 	4.015610590	1.472933700	2.738734760
C 	4.284256410	2.001760000	1.816658580
H 	3.850955080	3.008629750	1.867481990
C 	1.127821440	-2.360412360	-0.622072760
C 	2.122428280	-1.267284880	-0.213434150
H 	0.595618700	-2.086455230	-1.538509610
H 	0.376356770	-2.521354410	0.157856810
H 	1.660331980	-3.302780160	-0.793457280
H 	2.886285600	-1.139476380	-0.995472810
H 	2.677021510	-1.562150000	0.689917230
C 	4.121507200	1.263213560	-1.941061730
H 	4.580743360	1.914481080	-2.692727600
H 	3.115564940	0.994906710	-2.294500550
H 	4.730965230	0.357199490	-1.851685310
N 	4.131891760	1.973489110	-0.656516570
H 	3.657629080	2.877344650	-0.715217050
Sn	-1.164320940	2.006996280	-0.434175590
Cl	-0.850899240	2.319766580	1.916303420
Cl	-2.626911510	0.306536390	-1.193773190
Cl	-2.628851540	3.880169110	-0.759048300
Cl	0.539631740	2.787394950	-1.951479880
