60

C 	-4.144583393	0.238584254	4.827039558
C 	-1.934079698	-0.594864430	3.826298579
C 	-0.696974818	-2.875247117	4.752851952
O 	1.269242961	-3.779191580	3.878579213
H 	-1.262601273	0.015635915	-4.473056627
H 	-4.944119184	-0.861505939	6.380859078
H 	-1.001476989	0.390718432	2.284843914
C 	-3.186418094	-4.763839727	-3.401842734
H 	-3.041689715	-6.776420122	-2.944896602
H 	-5.152676407	-4.400292099	-3.941653509
H 	-2.829616637	-3.684327461	-1.674247760
H 	4.226725101	-7.426998497	-4.204455548
H 	1.232708546	-8.124035581	-2.893354473
H 	1.742885995	-8.443327297	-6.183554682
H 	10.411991459	1.247168428	2.781216764
H 	8.332767359	-1.144871392	3.868475301
H 	10.063880795	-1.610195247	1.051610743
N 	5.114612618	-0.948527563	-0.189151570
C 	4.425162406	-1.526803467	-2.618765286
N 	2.308283000	-3.028981383	-2.727750573
C 	6.951104043	0.987877367	0.575954319
H 	4.026771384	-1.665122140	1.219733459
C 	1.468568910	-4.499415339	-4.926023506
H 	1.701622276	-3.699517911	-1.039425713
H 	7.778437384	1.647280593	-1.198941634
C 	2.189628760	-7.290139278	-4.529801512
C 	9.059123506	-0.197963929	2.177553107
H 	4.980979615	5.096463235	-1.756394684
H 	2.580816014	-3.763557234	-6.504502857
C 	5.588878450	3.228784488	1.813131178
C 	5.154336551	3.391583770	4.422963030
C 	3.831262228	5.428549191	5.458171857
C 	2.920252022	7.353380625	3.903192499
C 	3.348852943	7.223062957	1.302277792
C 	4.666148691	5.183290613	0.273147288
H 	5.846909308	1.925675708	5.684789515
H 	3.518916502	5.513759001	7.490571473
H 	1.898486423	8.945372462	4.711826943
H 	2.666369698	8.722304164	0.068574306
C 	-1.393915544	-3.984508925	-5.568777811
C 	-2.126426567	-5.471508316	-7.972767446
H 	-4.019031368	-4.913643060	-8.600650644
H 	-2.167142493	-7.513684789	-7.655217584
H 	-0.815195687	-5.089506510	-9.529433177
C 	-1.751128697	-1.140348597	-6.114082019
H 	-0.561155987	-0.519192521	-7.687489287
H 	-3.723662866	-0.747815612	-6.608351584
C 	-8.667594192	6.615459770	2.745857607
C 	-6.428514305	6.118625544	1.429000105
C 	-4.928086615	4.066441819	2.083007086
C 	-5.631851105	2.438179675	4.076482161
C 	-7.893484288	2.972719361	5.384426580
C 	-9.391289586	5.035164582	4.730037553
H 	-5.855449434	7.346540062	-0.117552908
H 	-3.196350457	3.730534534	1.034776288
H 	-8.477279818	1.749365243	6.931588992
H 	-11.128744943	5.410599457	5.764168160
H 	-9.834271361	8.226252076	2.223398014
H 	-1.657996796	-3.831223810	6.364978878
S 	5.993658636	-0.493019247	-5.192247291
