60

C 	-4.548661432	-0.412191904	4.393192678
C 	-2.141388163	-0.975725061	3.719509697
C 	-0.922870545	-3.309729321	4.526044528
O 	1.189503042	-4.010442863	3.851173078
H 	-0.839844240	0.517195422	-4.129331936
H 	-5.521402774	-1.766598698	5.609286176
H 	-1.035919730	0.256548456	2.505925318
C 	-3.007257406	-4.256285631	-3.690267349
H 	-2.974976458	-6.311242461	-3.463052924
H 	-4.927029318	-3.737244429	-4.265605233
H 	-2.682864276	-3.397585685	-1.839250869
H 	4.309448784	-7.165135742	-4.459728605
H 	1.240241717	-7.837822407	-3.326341737
H 	1.859974607	-7.858578142	-6.611234642
H 	10.209083737	0.912627200	3.819290303
H 	7.872302370	-1.334323333	4.643959526
H 	9.919972363	-1.943163291	2.077410397
N 	5.238018866	-1.009253189	0.196519688
C 	4.661186476	-1.395015701	-2.295171174
N 	2.537807819	-2.851472096	-2.616326328
C 	7.052262663	0.831246124	1.192744929
H 	4.099089443	-1.834790152	1.497546750
C 	1.721240117	-4.049217323	-4.975554152
H 	1.844068061	-3.650454382	-1.023132083
H 	8.134149103	1.448407511	-0.453415017
C 	2.295528336	-6.896222840	-4.837818620
C 	8.864335271	-0.459021019	3.053367180
H 	6.126810475	5.277497579	-1.170963235
H 	2.931072882	-3.219134117	-6.429837389
C 	5.678646947	3.146870179	2.265579984
C 	4.657350596	3.204473111	4.709498543
C 	3.357694622	5.322835141	5.589749781
C 	3.053428629	7.434475099	4.042459454
C 	4.063978459	7.406510571	1.609153389
C 	5.360474751	5.285056058	0.734187561
H 	4.867753372	1.590566443	5.961886665
H 	2.586863620	5.324882369	7.496691237
H 	2.047749606	9.089780418	4.732417907
H 	3.851557177	9.044522392	0.384374380
C 	-1.083156716	-3.328192314	-5.675101079
C 	-1.765562857	-4.498102503	-8.260387154
H 	-3.595028470	-3.775528582	-8.903272000
H 	-1.918619958	-6.556889258	-8.178645102
H 	-0.364391718	-4.015089820	-9.705353482
C 	-1.289941178	-0.426756124	-5.909683631
H 	0.003262111	0.306545539	-7.345383451
H 	-3.215375405	0.111016516	-6.446850744
C 	-9.174520932	5.874736330	2.298082705
C 	-10.127342454	3.944070245	3.818050681
C 	-8.587742965	1.922023598	4.492152101
C 	-6.060263217	1.774505247	3.661280216
C 	-5.130041348	3.752557189	2.134179960
C 	-6.669712671	5.769248616	1.465461180
H 	-12.073091420	4.013893389	4.475619756
H 	-9.348001200	0.422155382	5.674608167
H 	-3.190669665	3.722377018	1.467526146
H 	-5.916615045	7.272699558	0.284216470
H 	-10.372939362	7.456242768	1.761741737
H 	-2.057080855	-4.510781183	5.832108797
S 	6.364031033	-0.203798744	-4.698294841
