30

H 	2.140539603	0.407949695	0.370981212
C 	0.000000000	0.000000000	0.000000000
C 	1.457435077	-0.355655926	0.000000000
C 	1.996252063	-1.707424926	-0.000000000
O 	2.879486246	-2.045179851	0.858241155
H 	-0.613270862	-0.777395341	-0.477048032
H 	-1.345384364	1.601352306	-0.547013367
H 	0.003316118	1.362805451	-1.689653108
C 	-0.279923340	1.361909338	-0.630106134
H 	0.296010060	2.138834013	-0.115706150
N 	1.540669199	-2.645546360	-0.875940773
C 	1.971202759	-4.042106700	-0.730483265
C 	0.838615400	-2.313572829	-2.119253225
H 	2.228609860	-4.234559333	0.311103134
H 	2.848853568	-4.249182558	-1.358415940
H 	1.149554791	-4.695751820	-1.043163319
H 	-0.175762594	-2.732086735	-2.121031600
H 	1.391148159	-2.736386437	-2.968727730
H 	0.790279236	-1.231963700	-2.248525914
O 	-0.389380619	0.087376591	1.404350790
C 	-0.738257542	-1.182714260	2.016923644
C 	-1.187260914	-0.905487611	3.442662091
H 	0.127761271	-1.858469612	2.021608114
H 	-1.542852329	-1.649755840	1.424004628
H 	-0.367567504	-0.469930804	4.021956298
H 	-1.477580276	-1.846525065	3.924677144
H 	-2.043885989	-0.222230267	3.455277305
Zn	3.219401640	-1.003556519	2.612498455
Cl	2.309486839	-2.195702999	4.166587784
Cl	4.280642395	0.826927823	2.174401668
