30

H 	1.655035223	1.915073987	1.068717227
C 	3.640156966	0.982103222	0.795190225
C 	2.141475164	1.000650777	0.730251903
C 	1.323433297	0.156789202	-0.127832194
O 	0.422888185	0.677770236	-0.868342934
H 	4.051272978	-0.002691603	0.532165000
H 	5.277255716	1.473281735	2.118921040
H 	3.864546690	0.761493121	2.943016511
C 	4.182784956	1.443573130	2.145296980
H 	3.809475412	2.447105638	2.376556719
N 	1.530093570	-1.187741286	-0.194383743
C 	0.813777575	-1.981795272	-1.200995625
C 	2.237333599	-1.946561580	0.841432417
H 	0.562456444	-1.346851776	-2.050632666
H 	-0.112143754	-2.400972268	-0.783370028
H 	1.461473439	-2.804477045	-1.523192628
H 	3.136266081	-2.425040517	0.432656113
H 	1.573090836	-2.729164364	1.231285166
H 	2.513323687	-1.290970973	1.667844268
O 	4.094742414	1.945338121	-0.203300474
C 	4.184681827	1.420748576	-1.554895120
C 	4.739349419	2.520261493	-2.446300735
H 	3.193874722	1.111245683	-1.914290535
H 	4.844966272	0.537009264	-1.545793057
H 	4.056983452	3.375367076	-2.465272487
H 	4.838156153	2.145273715	-3.471872151
H 	5.723303534	2.848704466	-2.093078746
Zn	0.386375580	2.682170441	-1.377250552
Cl	1.077910921	2.762008227	-3.421695860
Cl	-0.270319407	3.848643553	0.318899746
