28

H 	0.663758111	-2.180483907	0.476685135
C 	-0.372122709	-0.289996321	0.974397203
C 	0.398731496	-1.236556262	-0.010140985
C 	1.629172776	-0.571962511	-0.530578283
O 	2.768038356	-0.991544557	-0.328253302
H 	-0.571205292	0.647256232	0.436591908
H 	-0.257897900	-1.446657632	-0.867601335
H 	0.760887660	-0.871615287	2.758309843
C 	0.485362849	0.039077790	2.214169199
H 	1.411454875	0.553756999	1.933473739
H 	-0.074296500	0.685653133	2.898092303
H 	1.482855919	0.363780923	-1.105575880
C 	-4.221579482	-2.026964439	1.980596796
C 	-4.152538094	-0.851202912	1.227481798
C 	-2.908552584	-0.296026345	0.907069772
C 	-1.717867373	-0.902464801	1.333612271
C 	-1.799863829	-2.083419964	2.090005995
C 	-3.039871686	-2.642223209	2.410329995
H 	-5.064844516	-0.364339319	0.889184698
H 	-2.861834976	0.620699571	0.320828323
H 	-0.891333174	-2.572782982	2.435260487
H 	-3.084227674	-3.557501573	2.996829393
H 	-5.186838431	-2.461358448	2.230986665
Sn	4.819907358	0.329446863	-1.053500822
Cl	3.890870768	1.827049025	0.539648856
Cl	3.658552626	0.291988840	-3.122998495
Cl	6.755390288	1.553488102	-1.686953227
Cl	5.803094747	-1.665714177	-0.285267840
