28

H 	0.669293508	-2.157567710	0.483243645
C 	-0.392862216	-0.275039338	0.964779126
C 	0.410219123	-1.211270867	-0.002798446
C 	1.651596320	-0.541489217	-0.497970577
O 	2.786724483	-0.980025568	-0.310717816
H 	-0.604868056	0.655070865	0.419185756
H 	-0.223325301	-1.421897701	-0.878563579
H 	0.726619496	-0.823282652	2.768336905
C 	0.443137900	0.079332888	2.214227290
H 	1.364054247	0.608556860	1.940679286
H 	-0.137071588	0.721400327	2.885551843
H 	1.515490372	0.411984389	-1.045959948
C 	-4.222669472	-2.054729606	1.989387774
C 	-4.170221885	-0.862382696	1.260202331
C 	-2.933100959	-0.297402740	0.927768320
C 	-1.732787179	-0.908454102	1.320891188
C 	-1.798303160	-2.106099242	2.053429920
C 	-3.031350215	-2.674873415	2.385202366
H 	-5.090329464	-0.370328717	0.950677494
H 	-2.900657501	0.632542718	0.361362061
H 	-0.882627163	-2.599702828	2.373755810
H 	-3.062773149	-3.601888964	2.954324188
H 	-5.182408672	-2.496646658	2.249448364
Sn	4.859001126	0.300890061	-1.067723389
Cl	3.971800210	1.845715494	0.506240251
Cl	3.671735149	0.260061174	-3.126368442
Cl	6.815706842	1.472580457	-1.739880716
Cl	5.803180802	-1.705670376	-0.276026778
