35

H 	1.758602100	1.890524530	1.018658140
C 	3.635616380	0.978087240	0.261741680
C 	2.174600750	0.974997200	0.605921010
C 	1.170521180	0.027903120	0.176486790
O 	-0.019308430	0.419949810	-0.116286120
H 	3.923113290	0.017752700	-0.178828960
H 	5.584050800	1.286789410	1.188740540
H 	4.416779740	0.460888400	2.251679690
C 	4.532839700	1.248505510	1.496889180
H 	4.277586970	2.205065570	1.965233870
N 	1.439175910	-1.303671710	0.060460350
C 	0.437409710	-2.180993920	-0.566667480
C 	2.521757220	-1.982234090	0.785339460
H 	-0.084374990	-1.635302280	-1.352749750
H 	-0.297882570	-2.525612080	0.173731880
H 	0.957049510	-3.047803840	-0.987401440
H 	3.247520910	-2.417918280	0.086952140
H 	2.091712040	-2.791647470	1.389913230
H 	3.027070160	-1.287804230	1.455859370
C 	4.331238290	1.652357250	-2.092268230
C 	4.515827910	2.602066060	-3.102312070
C 	4.213034460	3.948783150	-2.876763200
C 	3.729911440	4.311235690	-1.621187960
C 	3.537267310	3.387762490	-0.599124150
C 	3.846305130	2.037848660	-0.835415930
H 	4.552855720	0.605046370	-2.286366490
H 	4.889601600	2.292074230	-4.075624070
H 	4.337817950	4.701584090	-3.650138950
F 	3.431729900	5.627828090	-1.379745700
H 	3.137382660	3.730991050	0.350166230
Sn	-0.703718170	2.163621040	-1.417587360
Cl	-0.089983150	3.611096600	0.389080470
Cl	-2.780811860	1.035322740	-1.221417450
Cl	-1.412453460	3.924179850	-2.892583570
Cl	0.933659570	1.263798190	-2.923123640
