18

H 	0.117514048	-1.526207874	0.972452672
C 	-0.869866763	-0.257495037	-0.437347528
C 	0.199164327	-0.712515423	0.254206796
C 	1.566238880	-0.212852711	0.146750676
H 	-0.701488536	0.557081880	-1.139970196
O 	2.522663903	-0.618200919	0.746375081
Cl	1.802161869	1.203399393	-1.059488251
C 	-4.929718795	-1.592184837	-0.267096101
C 	-3.970599930	-2.203509118	0.554265546
C 	-2.643271187	-1.786350559	0.515086138
C 	-2.241929380	-0.742471805	-0.349023324
C 	-3.220209940	-0.138285778	-1.168828156
C 	-4.550244123	-0.557817961	-1.128633161
H 	-4.264211148	-3.007681875	1.225136994
H 	-1.913898025	-2.271147264	1.158448017
H 	-2.923921025	0.666879766	-1.838246046
H 	-5.289262736	-0.079573292	-1.767281530
H 	-5.965541269	-1.922008695	-0.232386538
