26

H 	0.470665881	-2.008972470	-0.258332516
C 	-0.682247845	-0.189330267	0.207880597
C 	-0.104955046	-1.253585008	-0.798060576
C 	0.737487881	-0.602912403	-1.838646080
O 	1.959620696	-0.709323343	-1.964110115
H 	-1.248399648	0.547275993	-0.379652519
H 	-0.956597214	-1.729585876	-1.305438608
H 	1.075859663	-0.158670133	1.514690603
C 	0.448560613	0.543242089	0.957300144
H 	1.104277344	1.088091001	0.268946697
H 	0.021593457	1.261017734	1.665674700
H 	0.208457417	0.061373445	-2.555425994
C 	-3.480794371	-2.124718708	2.899868061
C 	-3.925894779	-1.147218920	2.004828047
C 	-3.019235373	-0.528830617	1.136246519
C 	-1.659936290	-0.872709796	1.152058383
C 	-1.221833668	-1.856275855	2.055332479
C 	-2.125753749	-2.476787382	2.921392568
H 	-4.976169533	-0.863740769	1.982200006
H 	-3.370871238	0.233840383	0.442495548
H 	-0.172211011	-2.140289307	2.083817643
H 	-1.770775064	-3.235768656	3.615395159
H 	-4.182472173	-2.607705772	3.576542203
Sn	3.881553095	-1.752019578	-0.623049795
Cl	4.175624759	0.431234059	0.439113441
Cl	2.541817844	-2.834567685	1.163933126
