30

H 	1.584677828	0.378170079	-1.339365135
C 	-0.014527345	0.098013081	0.049693197
C 	0.519820930	0.454257822	-1.168508110
C 	-0.274204558	0.976617194	-2.248157049
O 	0.245054920	1.415373391	-3.315371888
H 	-1.097147352	0.115983262	0.156007891
C 	-0.124519447	-1.266123121	2.111409671
C 	0.447629053	-1.973971099	3.164886236
C 	1.841578628	-2.027109567	3.291729655
C 	2.653435377	-1.366117558	2.364805124
C 	2.058572909	-0.670127607	1.320587584
C 	0.662019154	-0.598056787	1.143825298
H 	-1.207373956	-1.224137392	2.011747228
H 	-0.187162388	-2.483743734	3.884841274
H 	2.298920796	-2.576228022	4.110889015
H 	3.737246156	-1.378777911	2.439945420
F 	2.879717480	-0.011299633	0.450913379
C 	-1.786524797	1.036822365	-2.160961005
H 	-2.091890131	1.701742159	-1.342077455
H 	-2.211994043	0.046225911	-1.962060113
H 	-2.183255198	1.424496524	-3.100974629
Sn	2.451022044	2.009782493	-3.850419073
Cl	2.880451070	-0.332012426	-3.702100451
Cl	2.274488613	3.309983768	-1.846921673
Cl	4.687304049	2.674695047	-4.399139817
Cl	1.360012358	2.823194208	-5.783504763
C 	0.032802635	2.319273590	1.159428420
H 	1.097701746	2.271275417	1.349203046
H 	-0.309099866	2.939508207	0.339417020
H 	-0.656934257	2.061625039	1.955209444
