31

H 	1.549480055	1.764180456	1.277111959
C 	3.614461881	1.273030479	0.576280198
C 	2.133691187	1.067115036	0.678065448
C 	1.379811123	0.085500490	-0.040216083
O 	0.116060383	0.132998235	-0.066623804
H 	4.117022801	0.296588481	0.655913014
H 	5.227470295	2.319663869	1.612383373
H 	3.921813256	1.759201929	2.685822258
C 	4.143857328	2.188873457	1.701759004
H 	3.675638678	3.177879590	1.642645322
C 	1.156236324	-2.057283463	-1.435748740
C 	2.096049596	-1.035156880	-0.788723754
H 	0.485012561	-1.572861682	-2.151821243
H 	0.532175838	-2.552117485	-0.684057702
H 	1.736948087	-2.822020906	-1.963539638
H 	2.734044669	-0.557674643	-1.547662485
H 	2.791187468	-1.526704410	-0.091534541
O 	6.318120876	1.258332602	-3.610588421
H 	6.743706192	0.523413614	-3.134454521
C 	5.301005457	1.775945457	-2.834024290
C 	4.570534574	2.849104130	-3.363793353
C 	3.535090046	3.404829440	-2.611475036
C 	3.220819570	2.906228084	-1.342751477
C 	3.952861820	1.831097357	-0.813210399
C 	4.988712672	1.265440284	-1.567204511
H 	4.822799838	3.227041583	-4.351011517
H 	2.961997545	4.233530767	-3.020910277
H 	5.556795612	0.425579761	-1.165686575
H 	2.403442001	3.343027164	-0.775204898
I 	-1.086561769	2.497506573	0.154933834
I 	-2.370179225	4.984970821	0.161333247
