20

H 	  1.928084	  0.926033	 -0.003707
C 	  0.000000	  0.000000	  0.000000
C 	  1.353735	 -0.000000	  0.000000
C 	  2.211651	 -1.168979	  0.000000
O 	  3.421326	 -1.170159	 -0.005499
H 	 -0.503708	 -0.966735	  0.005023
C 	 -2.652435	  3.344425	 -0.025412
C 	 -1.266967	  3.567450	 -0.024899
C 	 -0.382945	  2.493482	 -0.016901
C 	 -0.868760	  1.165146	 -0.009134
C 	 -2.266358	  0.958218	 -0.009937
C 	 -3.149871	  2.036899	 -0.017838
H 	 -0.880924	  4.584040	 -0.031562
H 	  0.686968	  2.683019	 -0.018065
H 	 -2.649422	 -0.060262	 -0.004497
H 	 -4.222767	  1.860058	 -0.018559
H 	 -3.338319	  4.188479	 -0.031379
I 	  1.209897	 -3.198457	  0.019015
I 	  4.912579	  1.269008	 -0.159355
I 	  6.241831	  3.688762	 -0.337991
