20

H 	-0.000358350	0.037651300	-0.025242480
C 	-0.021673620	-2.101072200	-0.069741720
C 	0.568453690	-0.888716990	0.056743220
C 	1.975812230	-0.636527290	0.305737120
O 	2.498298720	0.448913590	0.425233100
H 	0.610942640	-2.983558030	0.030599290
C 	-4.130652720	-2.975451790	-0.850347080
C 	-3.715960570	-1.636785860	-0.772372870
C 	-2.383355460	-1.328165930	-0.515367890
C 	-1.430383390	-2.357838610	-0.331624930
C 	-1.865014540	-3.700552530	-0.411752480
C 	-3.202185740	-4.006583280	-0.667812300
H 	-4.437529150	-0.835351340	-0.914401300
H 	-2.078241340	-0.286487020	-0.460807520
H 	-1.140646460	-4.500665820	-0.271240340
H 	-3.520488840	-5.045083790	-0.726759440
H 	-5.173282250	-3.210220270	-1.053058070
I 	3.341328690	-2.434804340	0.478509070
I 	1.014591920	2.869041010	0.057462090
I 	-0.524598250	5.131425170	-0.344701300
