20

H 	-0.001707167	0.041830636	-0.034878805
C 	-0.025834445	-2.096652660	-0.071823537
C 	0.564513599	-0.884943230	0.054066332
C 	1.970408712	-0.637906520	0.308945113
O 	2.499940669	0.444423349	0.416201749
H 	0.606886192	-2.978354794	0.031082504
C 	-4.129937654	-2.980180821	-0.844449501
C 	-3.722688453	-1.640701177	-0.748509777
C 	-2.390671109	-1.328096083	-0.497562062
C 	-1.431471958	-2.354950614	-0.336127288
C 	-1.858168256	-3.698109778	-0.435892225
C 	-3.194140117	-4.008161197	-0.687402911
H 	-4.450436128	-0.842077677	-0.871439518
H 	-2.091180361	-0.285959613	-0.427601594
H 	-1.127238733	-4.494888800	-0.313605133
H 	-3.505806500	-5.047280020	-0.761397817
H 	-5.172977590	-3.217913628	-1.040533608
I 	3.321482822	-2.439172266	0.538493618
I 	1.024395933	2.868640960	0.038080325
I 	-0.500312246	5.139619913	-0.376591693
