18
C4H8Cl4OTi optimized with ADF in AMS.
H        0.56339012666357      -1.20736550718089       1.68984857860260
C       -0.76174277303512       0.24875922942103       0.72494248390319
C        0.24783271974318      -0.89984345942767       0.68064785894759
C        1.50684223573950      -0.68413107863722      -0.13030304534708
O        1.74189727646403       0.26333694233778      -0.84789379880543
H       -0.93497293793479       0.60695785442058      -0.29608556955315
H       -0.20789150350033      -1.80908056509078       0.25366212467598
H       -0.20056384483913       1.10088859573474       2.65488461423433
C       -0.34483369048360       1.42203748811092       1.61639830181477
H        0.58641542545545       1.87865314769634       1.27011893450497
H       -1.11600671486820       2.19947905651269       1.61660572143059
H       -1.71887219442204      -0.15178790414420       1.08059258869935
H        2.24734028261083      -1.51922943879543      -0.04054352878279
Ti       0.95500034366118       6.60651170300860      -1.01915267997990
Cl       1.68576869188284       4.74319548938355      -1.88180084554242
Cl       2.44225886876137       7.39968511971151       0.37342507208501
Cl      -0.91675659449342       6.23160312304759       0.04876003941164
Cl       0.60287646259466       8.06038603389087      -2.61376648029928
