28

H 	1.956820686	0.890183965	0.424898950
C 	0.000000000	0.000000000	0.000000000
C 	1.497411195	-0.000000000	-0.000000000
C 	2.362083719	-1.149554076	0.000000000
O 	3.418709211	-1.197125130	0.734757664
H 	-0.431131517	-0.773056882	-0.642973675
H 	-1.684371934	1.338139614	-0.279227331
H 	-0.319739434	1.636816243	-1.392320524
C 	-0.593125919	1.362645546	-0.366256812
H 	-0.211090485	2.139851528	0.306672236
N 	2.092397265	-2.249083361	-0.770072334
C 	2.896129148	-3.465349681	-0.592455242
C 	1.253578546	-2.209301930	-1.971831716
H 	3.236783284	-3.533135674	0.440718904
H 	3.777576496	-3.454900146	-1.248619542
H 	2.275701432	-4.332389475	-0.842651020
H 	0.328321704	-2.783956686	-1.833029579
H 	1.811433346	-2.649940497	-2.807668364
H 	1.011573240	-1.177871834	-2.228214274
C 	-0.368972464	-1.788511136	1.753160294
H 	-0.745663595	-1.891606159	2.775682743
H 	0.631045241	-2.248969511	1.717536526
H 	-1.032299091	-2.342184453	1.077973061
N 	-0.390374747	-0.368119953	1.396181683
H 	0.142956859	0.183158709	2.077642913
Zn	3.876976593	-0.233441837	2.438708297
Cl	2.138522628	0.615278660	3.471707955
Cl	5.996382320	-0.383617048	2.801340066
