31

H 	1.910749581	0.913935849	0.172017754
C 	0.000000000	0.000000000	0.000000000
C 	1.349212585	0.000000000	0.000000000
C 	2.201641802	-1.196307372	0.000000000
O 	3.207182092	-1.234114313	0.777893158
H 	-0.527119777	-0.948987799	-0.101962758
C 	-2.619119240	3.351067852	0.471772984
C 	-3.129202437	2.080113697	0.188266727
C 	-2.259892485	0.997632123	0.045877955
C 	-0.864813870	1.164283534	0.174835704
C 	-0.366467153	2.452092515	0.471934609
C 	-1.235441750	3.530284634	0.615714454
H 	-4.201592243	1.932322184	0.082967245
H 	-2.658115172	0.007561173	-0.170168790
H 	0.700770978	2.606328433	0.605535777
H 	-0.837066149	4.514891016	0.849560585
H 	-3.293003171	4.196734064	0.588947716
N 	1.957170168	-2.270374819	-0.787777443
C 	2.770943964	-3.487901729	-0.629837516
C 	1.029958879	-2.274957503	-1.926336033
H 	3.303894646	-3.449031301	0.319190044
H 	3.497767628	-3.565688145	-1.448959910
H 	2.109079834	-4.360833834	-0.657972524
H 	0.144006011	-2.885462775	-1.708827825
H 	1.543681288	-2.707692723	-2.792981293
H 	0.719487352	-1.258924810	-2.166779358
Ti	4.044379844	-0.205348567	2.417236809
Cl	4.934177965	0.923895047	4.150931173
Cl	4.489528388	1.438833807	0.914399298
Cl	1.984973923	-0.340784892	3.330769522
Cl	5.408741545	-1.983364075	2.578420369
