35

H 	1.990211378	0.915606950	0.329482140
C 	0.000000000	0.000000000	0.000000000
C 	1.501181502	0.000000000	0.000000000
C 	2.343488397	-1.151407856	-0.000000000
O 	3.471304701	-1.170339084	0.622910457
H 	-0.413988880	-0.894280193	-0.475667749
H 	-1.686240208	1.277125936	-0.519935295
H 	-0.419650906	1.189857436	-1.768047096
C 	-0.604800472	1.234793100	-0.688577902
H 	-0.159525121	2.163113350	-0.317166855
N 	1.940668728	-2.334766132	-0.598379010
C 	2.751093911	-3.542197121	-0.344760567
C 	1.238902771	-2.328561178	-1.898845241
H 	3.025953301	-3.583821067	0.709468462
H 	3.667867602	-3.536798101	-0.949123465
H 	2.147974359	-4.416138614	-0.607732355
H 	0.387257418	-3.017349037	-1.878319619
H 	1.935138663	-2.652814790	-2.683933635
H 	0.895284585	-1.323541717	-2.139714064
O 	-0.265107589	-2.566425632	1.439856092
H 	0.358263834	-2.464914216	0.690388271
C 	-0.398683547	-1.379375461	2.127998255
C 	-0.701305075	-1.478808050	3.491393629
C 	-0.839314811	-0.328032593	4.260532845
C 	-0.677088617	0.938020093	3.675813315
C 	-0.397987136	1.039229027	2.317823475
C 	-0.290105904	-0.105994760	1.507139882
H 	-0.787905083	-2.469041368	3.930327275
H 	-1.047237509	-0.414656041	5.324221437
H 	-0.271519172	2.021047655	1.871668090
H 	-0.764188618	1.836570733	4.280745429
Al	3.989346240	-0.140014093	2.091943038
F 	2.896395941	-0.630358366	3.278302441
F 	3.745188634	1.463522454	1.606156974
F 	5.589106175	-0.573419697	2.343895498
