32

H 	1.454900220	2.161738060	-0.394100920
C 	3.465795830	1.302425670	-0.038865530
C 	1.986828620	1.224385360	-0.253974670
C 	1.211647700	0.026595190	-0.244205680
O 	-0.060330330	0.041796430	-0.385748930
H 	3.915538320	0.310193830	-0.165808290
H 	4.846624770	1.894627240	1.545215380
H 	3.410165180	1.017706730	2.129909590
C 	3.765855270	1.766438230	1.414455300
H 	3.264941030	2.711984320	1.644774970
C 	0.867522120	-2.493418910	0.092465750
C 	1.859287270	-1.331554680	-0.042354490
H 	0.244425000	-2.587074700	-0.802509700
H 	0.196940980	-2.340077890	0.944819810
H 	1.411719500	-3.432569220	0.241190630
H 	2.544459970	-1.503929580	-0.888048920
H 	2.509108310	-1.270589700	0.843978300
C 	4.260870150	1.674567530	-2.410341500
C 	4.773559820	2.468287640	-3.440320470
C 	5.082209720	3.814318530	-3.213080680
C 	4.859614560	4.330049810	-1.937543500
C 	4.349519250	3.562364420	-0.893600290
C 	4.053714670	2.210795980	-1.126096970
H 	4.024312300	0.629472740	-2.600641940
H 	4.934196550	2.039399090	-4.426954740
H 	5.482481310	4.451988820	-3.996509360
F 	5.159609170	5.646363790	-1.694527380
H 	4.201911680	4.026658080	0.076344300
B 	-1.011524360	1.403242560	-0.611661880
F 	-0.793741600	2.169085160	0.527700860
F 	-2.268618640	0.871312230	-0.717923260
F 	-0.520182250	1.985258210	-1.773223130
