32

H 	1.408137511	2.137167101	0.959685560
C 	3.475398975	1.423643749	0.526422918
C 	1.981839523	1.336924591	0.501238759
C 	1.238252937	0.308501510	-0.155498631
O 	-0.037204862	0.341532716	-0.218676007
H 	3.893888125	0.418232377	0.677601921
H 	5.067666861	2.385189632	1.665240778
H 	3.631512772	1.975368089	2.635361436
C 	3.973529334	2.344523341	1.661805128
H 	3.593380654	3.363332178	1.527110235
C 	0.990726628	-1.873670853	-1.476291018
C 	1.932419585	-0.867870016	-0.806340816
H 	0.402333429	-1.394847913	-2.265426228
H 	0.287174765	-2.299635985	-0.754170967
H 	1.572311510	-2.688485652	-1.920359607
H 	2.656262444	-0.464527867	-1.529681585
H 	2.545997654	-1.360055244	-0.035142800
C 	4.994737513	1.202704010	-1.512700403
C 	5.461190339	1.645878101	-2.754619367
C 	4.906602643	2.778596182	-3.360220900
C 	3.886287560	3.446747340	-2.688455038
C 	3.403192516	3.032088773	-1.451464647
C 	3.971397924	1.895682488	-0.850324175
H 	5.433163323	0.320195435	-1.052264365
H 	6.262924226	1.108541580	-3.255613575
H 	5.249126835	3.140815858	-4.325324837
F 	3.332778880	4.554361515	-3.267774449
H 	2.596400121	3.587402089	-0.980942598
B 	-1.016943021	1.561500072	0.386691225
F 	-0.773223330	1.560517660	1.752163106
F 	-2.266449027	1.148760266	0.021623193
F 	-0.571452256	2.712727848	-0.250839586
