20

H 	0.214968998	-1.719640182	0.659494375
C 	-0.860519036	-0.147649675	-0.293156591
C 	0.248081161	-0.748354838	0.168549556
C 	1.613255297	-0.221028364	0.089463238
H 	-0.749826749	0.826073908	-0.771249025
O 	2.606081561	-0.741836037	0.503163602
Br	1.801223890	1.615391557	-0.835887464
C 	-3.117763777	0.357699919	0.572672314
C 	-2.272347908	-0.673964318	-0.226945892
C 	-2.376942617	-2.059592658	0.438866093
C 	-2.810422757	-0.748562207	-1.683724538
H 	-2.234081203	-1.466636762	-2.278072840
H 	-4.168216456	0.043121817	0.587413290
H 	-3.064216376	1.352852337	0.116087200
H 	-2.764805822	0.434823431	1.607290434
H 	-3.422381597	-2.387921426	0.452381762
H 	-2.020291816	-2.034380216	1.475214120
H 	-1.796209438	-2.811628034	-0.108131928
H 	-3.859277964	-1.068548577	-1.675571955
H 	-2.753973062	0.228859894	-2.176942323
