20

H 	0.207947013	-1.711780514	0.675497395
C 	-0.856841173	-0.151136683	-0.306862754
C 	0.247487400	-0.746070067	0.174004060
C 	1.614624469	-0.219889099	0.106547180
H 	-0.743460710	0.815622979	-0.799118162
O 	2.606135373	-0.737817131	0.529956255
Br	1.803872662	1.609247923	-0.827583833
C 	-3.109444926	0.358627190	0.573388331
C 	-2.271453855	-0.675219335	-0.234068465
C 	-2.372944922	-2.061042937	0.432435274
C 	-2.823275075	-0.746902221	-1.686881843
H 	-2.246015303	-1.455446725	-2.292240384
H 	-4.158918621	0.039989613	0.604492211
H 	-3.066484725	1.351631394	0.110625527
H 	-2.742171533	0.442219826	1.602847638
H 	-3.418554735	-2.389525882	0.452271889
H 	-2.010375945	-2.035321561	1.467171456
H 	-1.795048577	-2.813484585	-0.117562091
H 	-3.868874334	-1.078870512	-1.669473329
H 	-2.783868180	0.234247884	-2.174532945
