32

H 	1.560088610	2.161055580	0.007663080
C 	3.586548730	1.265364050	0.135160920
C 	2.099778900	1.213016800	-0.008923430
C 	1.308256940	0.040319340	-0.180005080
O 	0.047154610	0.129264320	-0.387996080
H 	4.021065980	0.271408240	-0.020535150
H 	5.086003150	1.892246740	1.590012080
H 	3.707926090	1.014790920	2.300267150
C 	3.999329160	1.754630750	1.546973830
H 	3.512521720	2.701049010	1.803191880
C 	0.892795410	-2.490215820	-0.074158050
C 	1.915391350	-1.347378100	-0.096476050
H 	0.274909590	-2.486062710	-0.977462940
H 	0.221013650	-2.399982230	0.786486890
H 	1.412376180	-3.452582780	-0.009574000
H 	2.597007690	-1.458134830	-0.956277960
H 	2.566467370	-1.385096170	0.789878270
C 	4.250030580	1.585728130	-2.288799400
C 	4.643657090	2.370691830	-3.375789300
C 	4.847142070	3.746226850	-3.220291830
C 	4.645864810	4.301632120	-1.956400050
C 	4.252394960	3.544453090	-0.856988310
C 	4.065083950	2.162525310	-1.018120160
H 	4.089514760	0.517838780	-2.423020420
H 	4.788903870	1.912602110	-4.351434640
H 	5.148445260	4.379165490	-4.050552810
F 	4.844328070	5.647023590	-1.788092350
H 	4.106185430	4.037911280	0.098714420
Al	-1.095725540	1.564685180	-0.833822260
F 	-0.466717610	2.876157090	0.034525690
F 	-2.599068030	1.031948840	-0.322709140
F 	-0.845312700	1.679558180	-2.492632170
