27

H 	 -0.498246	 -2.082434	 -0.048859
C 	  0.000000	  0.000000	  0.000000
C 	 -0.869333	 -1.062310	 -0.000000
C 	 -2.293540	 -0.988204	 -0.000000
O 	 -3.071291	 -1.932109	 -0.121566
H 	 -0.417247	  0.995845	  0.134757
H 	  0.000203	 -0.415376	 -2.796663
H 	  0.764017	  1.260802	 -2.474051
H 	 -1.094115	  1.043204	 -2.399056
C 	 -0.102617	  0.610822	 -2.465968
I 	 -3.248861	  1.006501	  0.209684
C 	  4.263558	 -0.181862	  0.241491
C 	  3.537914	 -1.355009	 -0.010220
C 	  2.148582	 -1.317977	 -0.094856
C 	  1.453786	 -0.099190	  0.069471
C 	  2.198944	  1.074612	  0.318453
C 	  3.589125	  1.033771	  0.407743
H 	  4.060892	 -2.299165	 -0.142679
H 	  1.602384	 -2.234405	 -0.300319
H 	  1.672322	  2.018932	  0.443026
H 	  4.147492	  1.945865	  0.605002
H 	  5.348557	 -0.216855	  0.306679
Ti	 -2.932593	 -4.086677	 -0.819523
Cl	 -2.753663	 -6.192004	 -1.534749
Cl	 -5.147994	 -3.979968	 -0.707173
Cl	 -1.871923	 -3.141103	 -2.569822
Cl	 -1.777553	 -4.353916	  1.088051
