27

H 	-0.498246113	-2.082434110	-0.048859382
C 	0.000000000	0.000000000	0.000000000
C 	-0.869332992	-1.062310353	0.000000000
C 	-2.293539561	-0.988203781	-0.000000000
O 	-3.071290970	-1.932109358	-0.121566042
H 	-0.417246557	0.995845362	0.134757268
H 	0.000202749	-0.415376011	-2.796663158
H 	0.764016664	1.260802430	-2.474051141
H 	-1.094114898	1.043203700	-2.399056110
C 	-0.102617118	0.610821998	-2.465967639
I 	-3.248861347	1.006501463	0.209683578
C 	4.263557718	-0.181862063	0.241490632
C 	3.537913594	-1.355009473	-0.010219498
C 	2.148582322	-1.317977088	-0.094856375
C 	1.453786169	-0.099190139	0.069470676
C 	2.198944388	1.074612382	0.318453089
C 	3.589124617	1.033770591	0.407743364
H 	4.060891663	-2.299164679	-0.142679260
H 	1.602384415	-2.234405278	-0.300318781
H 	1.672321812	2.018931537	0.443025681
H 	4.147492208	1.945865314	0.605001992
H 	5.348556993	-0.216854634	0.306678622
Ti	-2.932593131	-4.086676599	-0.819523072
Cl	-2.753662884	-6.192004317	-1.534748665
Cl	-5.147993696	-3.979967598	-0.707173489
Cl	-1.871922574	-3.141102615	-2.569821606
Cl	-1.777552561	-4.353916200	1.088050707
