27

H 	1.597735230	2.407236640	-0.568665980
C 	3.333684350	1.151929580	-0.678861520
C 	2.004352040	1.406059440	-0.447495050
C 	1.027567320	0.456493820	-0.017131520
O 	-0.148829780	0.690607360	0.249104140
H 	3.663742010	0.115203670	-0.643174960
H 	3.638030180	2.085543860	1.975558000
H 	5.260480350	1.297005820	1.482446210
H 	3.803351670	0.225117800	1.970831750
C 	4.208449520	1.199672040	1.723539980
I 	1.646361750	-1.665187190	0.237107180
C 	6.250766850	3.884363140	-2.199373590
C 	5.029723400	4.379339860	-1.717389370
C 	4.064591890	3.506256250	-1.220800800
C 	4.304920620	2.114209050	-1.191765530
C 	5.542443130	1.631097510	-1.674637600
C 	6.503234010	2.506941890	-2.178907210
H 	4.835029480	5.449447700	-1.727955360
H 	3.128047220	3.905021950	-0.839907780
H 	5.737752970	0.560283140	-1.653825220
H 	7.448745950	2.119690160	-2.552326530
H 	7.001858560	4.570684670	-2.584640700
Ti	-1.483271170	2.472463070	0.643799380
Cl	-2.764017690	4.254090240	1.050194780
Cl	-2.958508980	0.901209920	1.194036730
Cl	0.157941400	2.996826190	2.101324470
Cl	-1.124574140	2.887414550	-1.535558600
