33

H 	1.452071387	2.150633741	0.979780726
C 	3.518707762	1.440515588	0.540109369
C 	2.023665795	1.355029675	0.511108706
C 	1.279120755	0.344665117	-0.161977806
O 	0.000934015	0.389140360	-0.241277125
H 	3.941695045	0.437479089	0.696794130
H 	5.112043155	2.415722584	1.666180976
H 	3.680717535	2.005937196	2.643355900
C 	4.017944847	2.369563748	1.665882798
H 	3.633202978	3.385870969	1.526541336
C 	1.013659140	-1.846071551	-1.468142330
C 	1.963944682	-0.840091709	-0.810579745
H 	0.420990713	-1.369235965	-2.255155861
H 	0.313402583	-2.265789705	-0.739151233
H 	1.588322445	-2.665865471	-1.912404244
H 	2.680559666	-0.442821310	-1.544559697
H 	2.582815168	-1.330771366	-0.043413182
O 	6.337968777	0.959302778	-3.543427501
H 	6.653985223	0.187849194	-3.039696039
C 	5.369131343	1.616744167	-2.818420335
C 	4.792586860	2.755062813	-3.405459730
C 	3.814347364	3.460800604	-2.706743903
C 	3.403179507	3.048307944	-1.433791058
C 	3.982312643	1.909278099	-0.846396340
C 	4.958056601	1.191029398	-1.547860570
H 	5.120022521	3.064276693	-4.394476831
H 	3.360137884	4.338093549	-3.160754756
H 	5.407710435	0.304236309	-1.100837005
H 	2.631210018	3.602616932	-0.907672669
B 	-0.961243874	1.617556575	0.321891349
F 	-0.494621552	2.761214477	-0.320314196
F 	-0.752588459	1.641899561	1.695617554
F 	-2.215394522	1.222994357	-0.058746267
