12

C 	0.205562869	0.475805045	-0.016289303
C 	1.051868401	-0.714689933	0.236578831
H 	0.633716214	-1.593412177	-0.264530912
C 	-1.207021363	0.519321987	-0.257777311
H 	0.656706565	1.468528157	0.030710591
O 	-1.888183289	1.490696456	-0.480322490
C 	1.179449963	-1.022003317	1.761871297
H 	1.854624858	-1.872768642	1.906051291
H 	0.199697809	-1.274205394	2.178360575
H 	1.582579621	-0.160492282	2.305421920
Br	-2.125221853	-1.324459842	-0.178998198
H 	2.055913495	-0.524427017	-0.165957762
