27

H 	-1.085531866	-1.844807254	-0.010403452
C 	0.000000000	0.000000000	0.000000000
C 	-1.119260487	-0.764545732	0.000000000
C 	-2.462531776	-0.196830146	0.000000000
O 	-3.508143471	-0.871362408	-0.062403681
H 	-0.134739528	1.081140505	0.002426544
C 	2.396821871	0.574635548	-0.055224815
C 	3.751144528	0.255846886	-0.074208359
C 	4.149439954	-1.086818775	-0.047258969
C 	3.188864364	-2.102421242	-0.003404405
C 	1.843419333	-1.760057460	0.011726969
C 	1.390312854	-0.422599392	-0.013198280
H 	2.083976333	1.616414799	-0.074842759
H 	4.495627165	1.046797927	-0.108014467
H 	5.204870337	-1.347331749	-0.060190032
H 	3.465779877	-3.152748775	0.018918465
F 	0.935120242	-2.777320424	0.056997927
O 	-2.535142330	1.146462139	0.075164041
C 	-3.884074676	1.714536764	0.063067419
H 	-4.452866925	1.342979827	0.919519836
H 	-4.396242153	1.439632132	-0.862719596
H 	-3.732029963	2.792234234	0.126611116
Ti	-4.172715300	-2.969824003	-0.293715831
Cl	-4.834108504	-5.092657324	-0.533752560
Cl	-3.110591891	-3.267585544	1.664794691
Cl	-6.209919449	-2.048316487	-0.276022927
Cl	-2.968316021	-2.879292058	-2.190805539
