27

H 	2.424368701	0.874278859	-0.265436548
C 	4.250548732	-0.119270145	0.244198946
C 	2.924779271	-0.054463418	-0.030409209
C 	2.058403661	-1.227467597	-0.018866160
O 	0.827182096	-1.190856613	-0.205801719
H 	4.663865846	-1.099793991	0.478223243
C 	6.560434497	0.645188039	0.641744304
C 	7.554010092	1.617174949	0.706747601
C 	7.243099945	2.949806036	0.407505458
C 	5.938378396	3.301445626	0.046772409
C 	4.963118124	2.314785119	-0.008297498
C 	5.225223472	0.957875499	0.282937633
H 	6.798680419	-0.390971481	0.872338173
H 	8.567118479	1.341395736	0.987029637
H 	8.011864389	3.717168793	0.453583073
H 	5.665900703	4.325803975	-0.191585137
F 	3.702357812	2.694651720	-0.366159815
O 	2.666581932	-2.407692278	0.210360766
C 	1.793224382	-3.582084923	0.233209982
H 	1.293334290	-3.693899439	-0.732552584
H 	1.044161861	-3.474529318	1.022074236
H 	2.460786531	-4.420655339	0.432578151
Ti	-0.807151922	0.267725116	-0.522335677
Cl	-2.452358972	1.749804066	-0.835729454
Cl	0.330242243	0.769630115	-2.395022895
Cl	-2.088150321	-1.564904089	-0.508081236
Cl	-0.104529369	1.103526163	1.443747020
