29

H 	-1.156383605	-1.801560360	-0.002673493
C 	0.000000000	0.000000000	0.000000000
C 	-1.163228532	-0.713920594	0.000000000
C 	-2.473875928	-0.123018304	0.000000000
O 	-3.510990409	-0.856810598	0.001037588
H 	-0.052747002	1.089372425	0.003260383
O 	5.247150505	-2.037737631	-0.020861901
H 	5.908289852	-1.321609720	-0.019057911
C 	3.986661470	-1.505023760	-0.015138034
C 	2.908480499	-2.411354273	-0.016825641
C 	1.608812496	-1.936194301	-0.011866553
C 	1.338203480	-0.542358672	-0.004931756
C 	2.439363140	0.346264076	-0.003138463
C 	3.747641919	-0.120916397	-0.008241592
H 	3.117896027	-3.477665922	-0.021568192
H 	0.788754001	-2.648801622	-0.013019501
H 	2.255502489	1.418870449	0.001626422
H 	4.583134065	0.577790830	-0.007282453
C 	-4.167318124	1.800671498	0.071312068
C 	-2.694773936	1.379396899	-0.007832131
H 	-4.633921208	1.430601543	0.989597417
H 	-4.737679909	1.402733254	-0.773336504
H 	-4.241444087	2.893378789	0.058673960
H 	-2.122947889	1.810405166	0.826135101
H 	-2.228359529	1.776785149	-0.921682060
Al	-3.923048848	-2.685132181	0.015734831
F 	-2.429269341	-3.487560854	-0.023341574
F 	-4.824817237	-2.870697407	-1.386609352
F 	-4.741991536	-2.863164934	1.469449358
