29

H 	2.425376694	0.707849658	0.508939281
C 	4.297599800	-0.146255763	-0.081089949
C 	2.967664506	-0.190390126	0.222402232
C 	2.172959301	-1.388249226	0.199178843
O 	0.937915293	-1.347383002	0.494229525
H 	4.802358921	-1.070745965	-0.364040923
O 	7.649275767	4.376014469	-0.053915085
H 	8.561302919	4.146019734	-0.309368738
C 	6.865754666	3.254229646	-0.072433578
C 	5.510056989	3.414315702	0.274507798
C 	4.665012605	2.318488598	0.275715182
C 	5.140872562	1.025794095	-0.068600540
C 	6.506773324	0.892773252	-0.413313119
C 	7.363054071	1.986685549	-0.417334091
H 	5.147884632	4.404646748	0.537135845
H 	3.622116312	2.459408516	0.545558387
H 	6.893422014	-0.088858385	-0.680172623
H 	8.411850610	1.865550807	-0.684900959
C 	1.715326933	-3.878690008	-0.202930175
C 	2.748349179	-2.745773340	-0.164364114
H 	0.933374488	-3.673590917	-0.940766830
H 	1.228794888	-4.002517056	0.769207703
H 	2.207514522	-4.820197348	-0.469348850
H 	3.255181473	-2.650153650	-1.135050674
H 	3.542927134	-2.972710402	0.562084065
Al	-0.331127436	-0.064205024	0.999949610
F 	0.518349278	1.400593268	1.097680018
F 	-0.861582274	-0.636212230	2.485081021
F 	-1.430247563	-0.118677862	-0.266784920
