34

H 	2.114366651	-0.234216019	-0.088962358
C 	0.000000000	0.000000000	0.000000000
C 	1.152665013	-0.735239786	0.000000000
C 	1.208006132	-2.171293014	0.000000000
O 	2.290536792	-2.773222126	-0.304618457
H 	-0.954963647	-0.514270393	0.103699055
H 	-0.551042402	0.669721523	-2.896652243
H 	-1.064201040	-1.058697395	-2.438375851
H 	0.742912184	-0.671037759	-2.741315472
C 	-0.274378365	-0.329409084	-2.581931964
C 	0.228239001	-4.533398058	0.160263636
C 	0.013413529	-3.028541259	0.360740945
H 	1.056893251	-4.898858653	0.773994222
H 	0.464892120	-4.761555057	-0.883988950
H 	-0.679446775	-5.079231836	0.438967983
H 	-0.249509389	-2.805669335	1.405976355
H 	-0.843386767	-2.676802942	-0.231980338
C 	-1.404850884	2.065150621	-0.328378547
C 	-0.063009383	1.502288990	0.192946878
C 	1.119706273	2.243315196	-0.466991239
C 	-0.008227366	1.717214924	1.741339715
H 	0.939530388	1.353567502	2.151100925
H 	-1.494280096	3.124839095	-0.064343668
H 	-2.256304972	1.533891137	0.115400012
H 	-1.479801669	1.980846895	-1.416477635
H 	1.017795696	3.321216747	-0.297789442
H 	1.141873366	2.065157997	-1.547144385
H 	2.083486569	1.931853341	-0.052045559
H 	-0.099212466	2.787846006	1.959919068
H 	-0.829360024	1.194791577	2.246624318
Al	3.764809265	-2.076423469	-1.239838038
F 	4.791090788	-3.380485709	-1.448706888
F 	4.342955820	-0.821332953	-0.269101361
F 	3.001653212	-1.494666769	-2.634256412
