34

H 	1.649194095	2.196319214	-0.623048237
C 	3.496044694	1.137771195	-0.579039889
C 	2.131845288	1.223839336	-0.551355365
C 	1.245901104	0.115993297	-0.320939281
O 	0.026114691	0.321815382	-0.009905417
H 	3.965018986	0.156045441	-0.520211698
H 	4.425210065	1.869176617	2.203848302
H 	3.814122014	0.116665965	2.077124968
H 	2.587056137	1.528769209	2.166480291
C 	3.606083798	1.180284310	2.035582556
C 	0.650884005	-2.357187605	-0.013532094
C 	1.700025260	-1.323371483	-0.439515631
H 	-0.253505437	-2.275992150	-0.623762855
H 	0.358242601	-2.213371594	1.031552469
H 	1.057606338	-3.367911791	-0.125414422
H 	2.010816552	-1.486822968	-1.482592715
H 	2.618515966	-1.435584962	0.154561860
C 	5.853716506	2.019857045	-0.481092260
C 	4.420959973	2.259110254	-1.009390132
C 	3.917740031	3.653015401	-0.576663185
C 	4.454046639	2.183634668	-2.571415520
H 	3.460635767	2.372082956	-2.990951622
H 	6.538566722	2.761730357	-0.906833771
H 	6.218269402	1.023745481	-0.762184864
H 	5.899075442	2.104688776	0.608600590
H 	4.626332977	4.419116703	-0.911135308
H 	3.829221899	3.718344393	0.512767331
H 	2.941756216	3.891269853	-1.011118328
H 	5.147988036	2.941449548	-2.954127006
H 	4.797293571	1.201115477	-2.916864658
Al	-0.730534882	1.899424732	0.677316177
F 	-2.319011676	1.497994633	1.013550676
F 	-0.494015290	3.057451433	-0.528862907
F 	0.271913934	2.168117539	2.014533873
