30

H 	1.582218172	2.203418138	-0.346559981
C 	3.408088925	1.093095637	-0.464704956
C 	2.059326305	1.228822649	-0.314902591
C 	1.138291473	0.134131738	-0.043619334
O 	-0.085191527	0.263260836	0.118427131
H 	3.818947430	0.086607372	-0.519471261
H 	3.924125759	1.840953003	2.232332200
H 	4.986586033	0.364189611	1.821717135
H 	3.171117427	0.140380052	2.157887900
C 	4.001718263	0.800273274	1.941145530
O 	1.728880705	-1.094594388	0.030164800
C 	0.830802728	-2.209831566	0.302534998
H 	0.087962936	-2.301982065	-0.495341976
H 	0.318568171	-2.060876846	1.257739360
H 	1.475727959	-3.089066079	0.338007783
C 	4.280043232	2.090980066	-2.532422632
C 	4.320604724	2.199497675	-0.976210674
C 	5.779189980	1.977739143	-0.513621995
C 	3.850745763	3.606877148	-0.551318713
H 	3.799812545	3.693740955	0.539895559
H 	4.945379006	2.843815172	-2.972477651
H 	3.264559507	2.257383202	-2.907139547
H 	4.612907777	1.101825531	-2.869139558
H 	6.449850063	2.660411282	-1.048476209
H 	6.108067585	0.951580753	-0.719758243
H 	5.892456767	2.166292148	0.557923162
H 	4.556557936	4.360169622	-0.919902904
H 	2.864541004	3.851679333	-0.959375454
I 	-1.293620422	2.695945887	0.344687250
I 	-2.529140047	5.175917565	0.621016152
