25

H 	1.511887726	-1.502613865	0.070987381
C 	0.000000000	0.000000000	0.000000000
C 	0.456745977	-1.272551391	-0.000000000
C 	-0.428279731	-2.446163006	-0.000000000
O 	-0.105035721	-3.548237498	0.524248683
H 	-1.079975231	0.159359889	0.008919907
C 	0.059100316	2.462674550	0.179675351
C 	0.716421967	3.687044861	0.259617205
C 	2.115940312	3.728004086	0.227467450
C 	2.848479859	2.542507525	0.110886539
C 	2.170115474	1.333751060	0.031886317
C 	0.762538315	1.238896324	0.065322626
H 	-1.028169989	2.428837942	0.209928398
H 	0.143807472	4.606318689	0.349395519
H 	2.639854457	4.678424648	0.292034892
H 	3.934550600	2.540326604	0.081520969
F 	2.918010100	0.198022563	-0.090364688
N 	-1.648156759	-2.352367467	-0.587956882
H 	-2.240606902	-3.175371387	-0.590986385
H 	-1.877171711	-1.583478263	-1.203049968
Sn	1.652876557	-4.146915525	1.974755124
Cl	0.932158720	-2.242489370	3.215740440
Cl	3.013628518	-3.797726576	0.048459028
Cl	3.411946862	-4.810428487	3.461372022
Cl	0.354762530	-6.120671480	2.083467509
