25

H 	2.368282520	0.882101960	0.721850860
C 	4.214861180	-0.137127300	0.398335750
C 	2.886013300	-0.065077440	0.638586840
C 	2.014715080	-1.247678740	0.719782310
O 	0.790390480	-1.219579680	0.409654250
H 	4.659118880	-1.123157330	0.245027450
C 	6.499801780	0.638407460	-0.129573560
C 	7.468145820	1.622299880	-0.312467130
C 	7.131389790	2.969476980	-0.128667810
C 	5.828303500	3.322567380	0.238968740
C 	4.879240390	2.323815630	0.417055850
C 	5.168079700	0.952705580	0.238835960
H 	6.758433310	-0.408977190	-0.275778670
H 	8.479836320	1.343837070	-0.597123400
H 	7.878634560	3.746714270	-0.271259950
H 	5.538206630	4.359050470	0.389246960
F 	3.618842300	2.706901340	0.787179360
N 	2.541025520	-2.424185570	1.148705390
H 	1.924253850	-3.226589010	1.220289530
H 	3.439099890	-2.458150390	1.613296020
Sn	-0.501399430	0.373983190	-0.752862810
Cl	1.265169560	0.245866040	-2.351624020
Cl	-0.164137590	1.701972650	1.200682240
Cl	-1.856041690	1.948463370	-1.950111600
Cl	-2.059290920	-1.402670570	-0.638048970
