25

H 	2.368951466	0.884308396	0.718859439
C 	4.215544287	-0.136510819	0.407868741
C 	2.886208139	-0.063350234	0.643488908
C 	2.015864347	-1.245218838	0.723006279
O 	0.794641345	-1.219684637	0.403860634
H 	4.658947433	-1.123350397	0.261708083
C 	6.500641798	0.634563614	-0.125343791
C 	7.467371143	1.617935139	-0.314974820
C 	7.130626197	2.966254744	-0.141769891
C 	5.828574157	3.321102115	0.224769634
C 	4.882197604	2.322123349	0.408955165
C 	5.169882701	0.950770165	0.241573575
H 	6.759444046	-0.413191670	-0.264796802
H 	8.478379045	1.338358144	-0.599072695
H 	7.876901827	3.742820606	-0.290000719
H 	5.535841573	4.357469685	0.368528593
F 	3.624060351	2.705541018	0.775359917
N 	2.537353503	-2.420280914	1.158745925
H 	1.919864139	-3.222303400	1.220459935
H 	3.432964059	-2.456343541	1.626249058
Sn	-0.498922957	0.377237755	-0.749035788
Cl	1.288368264	0.306373035	-2.326022160
Cl	-0.209305812	1.663344140	1.237480698
Cl	-1.860370746	1.958897057	-1.927772977
Cl	-2.033053179	-1.421894461	-0.702145351
