29

H 	  1.929097	  0.927920	 -0.025787
C 	  0.000000	  0.000000	  0.000000
C 	  1.369335	  0.000000	  0.000000
C 	  2.092066	 -1.231035	  0.000000
O 	  3.337732	 -1.378350	 -0.061459
H 	 -0.504700	 -0.965152	  0.080291
H 	 -0.788424	  0.538389	 -2.843071
H 	 -0.697877	 -1.284529	 -2.461693
H 	  0.869029	 -0.305050	 -2.746038
C 	 -0.199070	 -0.327817	 -2.568644
H 	  1.491815	 -2.157523	  0.060635
C 	 -0.912015	  1.344364	  1.823835
C 	 -0.869750	  1.210384	  0.264857
C 	 -2.311192	  0.978164	 -0.242719
C 	 -0.286823	  2.507348	 -0.336362
H 	 -0.181800	  2.428586	 -1.423352
H 	 -1.557335	  2.188745	  2.093530
H 	  0.089931	  1.522416	  2.226638
H 	 -1.318535	  0.439731	  2.290900
H 	 -2.962100	  1.791910	  0.095844
H 	 -2.718524	  0.036653	  0.146153
H 	 -2.354644	  0.942556	 -1.334973
H 	 -0.954062	  3.348002	 -0.115813
H 	  0.695203	  2.746277	  0.084638
Sn	  5.036725	  0.242107	 -0.403973
Cl	  3.780902	  0.710910	 -2.387183
Cl	  6.365420	 -1.707164	 -0.343432
Cl	  6.767247	  1.850754	 -0.780917
Cl	  4.227531	  1.154361	  1.647873
