29

H 	1.302197940	2.292834370	-0.456492660
C 	3.096739180	1.120199180	-0.498789740
C 	1.738160930	1.300035710	-0.465011860
C 	0.862033600	0.171953540	-0.412057780
O 	-0.389528360	0.184410190	-0.299710910
H 	3.469660740	0.095266920	-0.562930830
H 	3.966688030	1.624329720	2.320585550
H 	3.760883910	-0.192315040	1.951808640
H 	2.261151840	0.881889590	2.265280480
C 	3.321665790	0.793145880	2.062410970
H 	1.337170600	-0.825128850	-0.476905040
C 	4.213846520	2.194665580	-2.385083650
C 	4.112368280	2.197301440	-0.822134950
C 	5.508439360	1.848646480	-0.251994500
C 	3.670920210	3.595512150	-0.337669500
H 	3.500984440	3.602060940	0.744867600
H 	4.959213020	2.936251210	-2.697007500
H 	3.250980240	2.449240470	-2.840210680
H 	4.528603700	1.213956030	-2.761756920
H 	6.258776820	2.537226570	-0.657233410
H 	5.805995120	0.828057960	-0.524380610
H 	5.531683790	1.931704230	0.838428780
H 	4.451767460	4.329752700	-0.566373420
H 	2.750576150	3.926316520	-0.830831430
Sn	-1.879338190	1.970373310	0.180457440
Cl	-0.457925370	2.235463670	2.089508460
Cl	-3.409388530	0.171624590	0.150635560
Cl	-3.403556740	3.737967540	0.709356820
Cl	-1.090529490	2.860771570	-1.890038480
