29

H 	0.232758950	-2.104473440	-0.592288390
C 	-0.727639940	-0.199983000	-0.278796070
C 	0.342041640	-1.024478780	-0.510193500
C 	1.664780060	-0.487886780	-0.614801270
O 	2.678351700	-1.203602010	-0.806570350
H 	-0.539789970	0.875591440	-0.282297250
H 	-0.138556640	-1.008914950	2.427279480
H 	-1.226224790	0.496455470	2.623572870
H 	0.556066530	0.690038150	2.111085110
C 	-0.304183980	0.049900010	2.269938610
H 	1.788378680	0.603431840	-0.513451110
C 	-2.497605790	-0.720321970	-1.901448480
C 	-2.187563430	-0.608088700	-0.372750640
C 	-3.103953500	0.480925950	0.231301580
C 	-2.469844960	-1.968675290	0.304755290
H 	-2.267841180	-1.920962910	1.380157300
H 	-3.558553690	-0.963127630	-2.037495150
H 	-1.893390780	-1.506242500	-2.366717720
H 	-2.292746720	0.224414000	-2.418690200
H 	-4.154743030	0.232679200	0.043049010
H 	-2.902743740	1.461212410	-0.218491560
H 	-2.967719090	0.565533630	1.314002140
H 	-3.524138450	-2.236515370	0.167630170
H 	-1.865111110	-2.774887830	-0.124699030
Sn	4.937650220	-0.494593780	-1.013082670
Cl	4.484270110	-1.065729150	-3.272268400
Cl	5.172311500	-2.160613680	0.657678240
Cl	7.248592090	0.072493400	-1.264232040
Cl	4.175052920	1.650159390	-0.269343170
