29

H 	0.232758952	-2.104473438	-0.592288388
C 	-0.727639936	-0.199982998	-0.278796070
C 	0.342041638	-1.024478780	-0.510193499
C 	1.664780059	-0.487886775	-0.614801267
O 	2.678351705	-1.203602010	-0.806570351
H 	-0.539789975	0.875591435	-0.282297254
H 	-0.138556644	-1.008914953	2.427279483
H 	-1.226224790	0.496455470	2.623572867
H 	0.556066530	0.690038150	2.111085108
C 	-0.304183985	0.049900006	2.269938610
H 	1.788378681	0.603431840	-0.513451110
C 	-2.497605792	-0.720321967	-1.901448484
C 	-2.187563430	-0.608088699	-0.372750636
C 	-3.103953500	0.480925953	0.231301585
C 	-2.469844956	-1.968675294	0.304755288
H 	-2.267841177	-1.920962910	1.380157302
H 	-3.558553687	-0.963127635	-2.037495151
H 	-1.893390778	-1.506242501	-2.366717717
H 	-2.292746716	0.224413996	-2.418690201
H 	-4.154743035	0.232679196	0.043049010
H 	-2.902743737	1.461212408	-0.218491556
H 	-2.967719091	0.565533630	1.314002139
H 	-3.524138448	-2.236515372	0.167630172
H 	-1.865111113	-2.774887828	-0.124699031
Sn	4.937650223	-0.494593777	-1.013082672
Cl	4.484270111	-1.065729153	-3.272268402
Cl	5.172311496	-2.160613684	0.657678238
Cl	7.248592090	0.072493397	-1.264232039
Cl	4.175052925	1.650159386	-0.269343165
