68

C 	-1.990449160	1.250594520	0.988183390
C 	-0.730211870	0.529822300	1.348149120
C 	-0.596410500	-0.846126480	1.789720260
O 	0.526954590	-1.403652040	1.889181680
H 	0.077379720	-4.650367340	-2.790596710
H 	-2.802024680	0.519877610	0.851535800
H 	0.216844000	1.049512380	1.215277400
H 	5.323856540	1.054647560	1.518219060
H 	4.049088510	0.117058080	2.328792300
H 	-0.300410720	-4.188884490	-1.120485250
H 	5.195545490	-0.704814170	1.259932750
C 	-1.777129450	1.961537400	-0.374044530
H 	-0.985775390	2.714325720	-0.307356630
H 	1.379057130	-4.504494380	-1.595070430
H 	-1.456412340	-1.306111540	-0.918407990
H 	-2.697972950	2.442986580	-0.716916040
H 	-1.475886300	1.233373500	-1.131817900
N 	2.767902070	-0.691500250	0.074213170
C 	2.330017580	-1.116829710	-1.174301800
N 	1.180395910	-1.886989610	-1.122380570
C 	3.706724030	0.437647350	0.187869470
H 	2.110649250	-0.812214670	0.850090340
C 	0.640479470	-2.588792350	-2.290666000
H 	0.825493830	-2.132110750	-0.202176840
H 	4.308567680	0.406527240	-0.726360000
C 	0.430393260	-4.071597630	-1.931308620
C 	4.624287830	0.218793270	1.399757420
H 	2.635223420	1.706066510	-1.938454670
H 	1.417430710	-2.516458590	-3.060687080
C 	2.945958370	1.769989510	0.193133070
C 	2.687939120	2.495622600	1.366555960
C 	1.962589170	3.693269930	1.325270790
C 	1.475335580	4.180510840	0.108592520
C 	1.719328310	3.460096980	-1.068088760
C 	2.447628870	2.268196900	-1.026135800
H 	3.061987640	2.137270400	2.322413790
H 	1.780508620	4.245857690	2.245251430
H 	0.918314770	5.115006850	0.075422410
H 	1.347887150	3.831209990	-2.021691520
C 	-0.634525730	-1.866741020	-2.870360230
C 	-1.121401470	-2.606637920	-4.137878960
H 	-1.921611330	-2.034833170	-4.625063820
H 	-1.520214060	-3.601024020	-3.906775820
H 	-0.305461570	-2.724479830	-4.863049200
C 	-0.247905600	-0.421355110	-3.261920380
H 	0.554962430	-0.417321190	-4.007561210
H 	-1.116825260	0.102813250	-3.680877100
H 	0.109868500	0.141554440	-2.394247850
C 	-1.775180790	-1.822462380	-1.829921540
H 	-2.115304840	-2.827150920	-1.551395450
H 	-2.638966070	-1.281235820	-2.237448980
O 	2.911239540	-0.840043380	-2.234768880
N 	-1.742981840	-1.570100230	2.049107490
H 	-2.634528090	-1.110535650	2.180327920
H 	-1.618634270	-2.485256400	2.466663710
C 	-2.813038650	1.404155130	3.405922410
C 	-2.496968420	2.231858510	2.139374130
C 	-3.794551310	2.934828180	1.681771070
C 	-1.427665350	3.288748090	2.485167620
H 	-1.160749510	3.896596800	1.614936170
H 	-3.168015700	2.061183220	4.209329190
H 	-1.929028770	0.871767010	3.774443420
H 	-3.608462870	0.669664270	3.214025840
H 	-4.225997670	3.499589180	2.518119630
H 	-4.545333340	2.207172910	1.345506530
H 	-3.614125310	3.641843400	0.865614720
H 	-1.808087110	3.963217620	3.262532220
H 	-0.510197060	2.822467340	2.859713280
