17
C4H7Cl4OTi optimized with ADF in AMS.
H       -0.03772452554259      -1.96124265485854      -0.25070785162685
C       -0.59103474949180       0.07406342594784       0.02792860410334
C        0.29752785525432      -0.95043017057586      -0.01906998822995
C        1.73600144511308      -0.78572760462681       0.24384239035468
O        2.27770662255136       0.24932367439999       0.60629773564659
H       -0.24152026516917       1.09281966695941       0.16226411950822
H       -1.88763922203334      -0.68880540001594       2.51477651140982
H       -2.11950166420781       1.14019697820113       2.23805447361429
H       -0.48143030304152       0.48972342004223       2.84951920435720
C       -1.45841315106898       0.30134424645279       2.42297497562621
H       -1.62705874323134      -0.06955831733856      -0.26023043511988
H        2.34263550962699      -1.70918299947508       0.08728404400574
Ti       2.92633673148500       6.33588618464918       0.80841500156023
Cl       3.14650618781904       4.24463117494823       1.37502473467966
Cl       4.88819455080246       7.30094456881439       0.78976478651835
Cl       1.63105651220426       7.34821023285402       2.25207004331656
Cl       2.03084518893003       6.46169660362158      -1.18322458972421
