29

H 	2.487846955	0.680767436	0.377068517
C 	4.355735484	-0.217175230	-0.071535016
C 	3.014387806	-0.235567272	0.137945944
C 	2.187785841	-1.425234727	0.065890209
O 	0.948107412	-1.375444930	0.267686590
H 	4.861992907	-1.151439879	-0.314225676
C 	4.746233968	2.243372956	0.301972975
C 	5.610737393	3.330301315	0.347716066
C 	6.965165705	3.120990373	0.077562605
C 	7.480657372	1.865208061	-0.235006275
C 	6.601550534	0.785273506	-0.276150771
C 	5.222308105	0.947440141	-0.011515740
H 	3.692839913	2.402100860	0.512723100
H 	5.257150994	4.329077271	0.587503400
F 	7.813039838	4.186949501	0.122025147
H 	8.541539111	1.749267787	-0.437761301
H 	6.983654581	-0.204313360	-0.518047816
C 	1.766153254	-3.929248331	-0.298806611
C 	2.788782537	-2.788046793	-0.255232456
H 	1.001334612	-3.744342431	-1.059236677
H 	1.254884416	-4.037470907	0.662617037
H 	2.271823101	-4.872094719	-0.533781953
H 	3.315280473	-2.702389160	-1.216853270
H 	3.567110414	-2.993622593	0.493968660
Sn	-0.583987159	0.358020970	0.804596065
Cl	0.813949177	0.636760952	2.719175013
Cl	-2.053248651	-1.490581348	0.730243072
Cl	-2.176646480	2.060828225	1.342710081
Cl	0.184817229	1.300736958	-1.247637071
