24

C 	0.925092250	-0.173045010	1.158406810
C 	1.523227540	-0.118578700	-0.056031080
C 	-1.124158790	-0.492664100	-1.965375000
H 	0.796111070	-1.108979410	1.699063710
C 	0.401128750	1.002284840	1.861620640
H 	-1.085839380	-1.432004990	-1.427383040
H 	1.609777280	0.866872880	-0.511919410
H 	-0.594085990	-0.389282170	-2.905127270
H 	-1.701439140	0.336649980	-1.573514890
O 	-0.133103060	0.917572040	2.964465910
N 	0.558235220	2.287595080	1.153567480
H 	1.055432120	2.916351490	1.794011510
H 	-0.379642240	2.697445590	1.080232090
C 	3.182039300	-3.310823760	-2.383029570
C 	3.276823010	-1.982927560	-2.815040940
C 	2.730071980	-0.957458350	-2.041374650
C 	2.079679480	-1.233792430	-0.819162740
C 	1.992363980	-2.580146340	-0.399095380
C 	2.536882950	-3.603610560	-1.172184600
H 	3.775557090	-1.748135160	-3.753375580
H 	2.797920500	0.075193730	-2.379853600
H 	1.489786360	-2.825239590	0.533299440
H 	2.461067000	-4.635177940	-0.833403540
H 	3.607728790	-4.113199630	-2.982197370
