34

H 	1.503556010	1.917128020	1.089460080
C 	3.549286180	1.180910040	0.643957550
C 	2.053689870	1.050853720	0.724111620
C 	1.277095890	0.162241000	-0.111554900
O 	0.244324680	0.576115420	-0.729893740
H 	4.036382030	0.206839750	0.522806110
H 	5.227154420	2.068670250	1.713197520
H 	4.047000060	1.241615450	2.759394080
C 	4.160421900	1.876826040	1.872768530
H 	3.666084400	2.831157810	2.082413360
N 	1.716559600	-1.134254220	-0.341927160
C 	0.993735110	-1.933009170	-1.351626990
C 	2.356516190	-1.920740110	0.732657880
H 	0.745265140	-1.299404570	-2.203971040
H 	0.066641210	-2.350146490	-0.934960320
H 	1.646065080	-2.752254590	-1.670351270
H 	3.202922130	-2.491097560	0.333173070
H 	1.627633950	-2.624270070	1.159222810
H 	2.702823600	-1.259071550	1.527136960
O 	4.079984610	-0.127685200	-1.951805990
H 	3.419006480	-0.523998800	-1.345726910
C 	3.988844820	1.253132170	-1.889669590
C 	4.200145740	1.956291020	-3.081048380
C 	4.090674260	3.345296670	-3.101946100
C 	3.765883700	4.045392190	-1.931694280
C 	3.586084340	3.349248510	-0.738495840
C 	3.733064280	1.949447570	-0.681154280
H 	4.406496750	1.390914160	-3.986066690
H 	4.223331980	3.879581370	-4.039680580
H 	3.327235630	3.895718470	0.163696920
H 	3.644444140	5.125320840	-1.951817460
Zn	0.210472060	2.539224560	-1.472375440
Cl	0.452631380	2.259599600	-3.594609640
Cl	-0.063115720	3.963175380	0.136877840
