29

H 	2.100748463	0.271032599	-0.156106915
C 	0.000000000	0.000000000	0.000000000
C 	1.293831223	-0.436122191	0.000000000
C 	1.718086728	-1.828746886	0.000000000
O 	2.878871042	-2.188150592	-0.364803070
H 	-0.809323299	-0.710509823	0.173559316
H 	0.287516462	0.062520606	-2.782887702
H 	-1.512485931	-0.351521840	-2.463060951
H 	-0.193577504	-1.641820324	-2.237606399
C 	-0.461677056	-0.599452810	-2.366115057
N 	0.847194037	-2.801112420	0.385236948
H 	-0.010330863	-2.577465357	0.871362434
H 	1.187490675	-3.755237969	0.414958232
C 	-0.538366475	1.675882290	1.714496488
C 	-0.404826588	1.458467294	0.175266142
C 	-1.779429910	1.739094322	-0.474697896
C 	0.646232139	2.435829173	-0.392546439
H 	0.846948792	2.234903647	-1.449823957
H 	-0.843875476	2.709947496	1.914459407
H 	0.415584978	1.489201942	2.219055956
H 	-1.294898641	1.009189509	2.147004174
H 	-2.143647385	2.725362267	-0.164854529
H 	-2.524533090	0.993315687	-0.169748759
H 	-1.711936085	1.732487469	-1.566241147
H 	0.280037092	3.464454459	-0.299001155
H 	1.596273190	2.374642593	0.148809143
Zn	4.265233769	-1.175489640	-1.495704801
Cl	6.225345646	-1.870528447	-0.955022152
Cl	3.239159866	0.213044002	-2.820620912
