29

H 	1.592786250	2.347061090	-0.555870860
C 	3.351235130	1.159425260	-0.447860440
C 	1.999022040	1.348476380	-0.431798940
C 	1.000396690	0.346758130	-0.081286090
O 	-0.200307350	0.651280300	0.199486390
H 	3.757162030	0.151415580	-0.347664020
H 	3.080984400	2.086582180	2.184141000
H 	4.697193810	1.137680050	2.158109850
H 	3.074922610	0.229563490	2.161043670
C 	3.620435560	1.158517540	2.035059590
N 	1.345383080	-0.969548160	-0.027819310
H 	2.214069200	-1.305786080	-0.421550460
H 	0.612935870	-1.640730980	0.174410690
C 	4.398872450	1.940572650	-2.533853000
C 	4.345142730	2.180605980	-0.992005690
C 	5.761415240	1.944879230	-0.416073060
C 	3.908405190	3.635379650	-0.713061860
H 	3.780451110	3.811154130	0.360113320
H 	5.121855130	2.629906550	-2.987603430
H 	3.417547730	2.111402840	-2.989632610
H 	4.714926500	0.915727790	-2.766904430
H 	6.492931810	2.549341080	-0.965176140
H 	6.059443810	0.891930310	-0.506389960
H 	5.816395250	2.229791420	0.638730490
H 	4.672868260	4.325802970	-1.088378730
H 	2.965715660	3.885385500	-1.211339810
Zn	-0.965058250	2.475724700	0.743597290
Cl	-2.987741180	2.632103060	0.030657380
Cl	0.563362410	3.570090220	1.847317810
