36
C13H20N2S optimized with ADF in AMS.
 N        1.11496455196874       2.00229623908644       1.00738392996300
 C       -0.12333380649131       2.48895754683975       1.35703277634879
 S       -0.34589194866761       3.89452543865553       2.23280702775202
 N       -1.14497937346924       1.68969098480752       0.90426269347421
 C        2.38543713556669       2.53835355786278       1.49465588946143
 H        1.15584574927839       1.02874492659206       0.73336778227577
 C       -2.55985907761670       2.03163521928577       0.97736247575642
 H       -0.89897779014619       1.06102364352036       0.15197849729556
 H        2.34187553173116       3.62685997282892       1.40408582017980
 H       -2.73166386894601       2.47944462446827       1.95827743028762
 H        2.51602258398007       2.31533643623735       2.56259878770547
 H        3.16389470032061       3.15220151826487      -1.05834478086876
 H       -2.80204538452703       2.80495314911690       0.23286173033785
 C        3.53829932285096       1.96036375117187       0.69995481675228
 C        4.36550157743639       0.97696176045143       1.25540793619065
 C        5.42098467504912       0.43004486006874       0.52276919798814
 C        5.66355713311771       0.86136893708170      -0.78011992481948
 C        4.84720084516896       1.84371478419838      -1.34476257787803
 C        3.79421170454672       2.38643077103755      -0.61118556413201
 H        4.18587904288735       0.63719239775861       2.27381433443868
 H        6.05338715917076      -0.33274590873116       0.97197009107625
 H        6.48617321758651       0.43855356634388      -1.35256523795511
 H        5.03494722301356       2.19003005236515      -2.35885269533469
 C       -3.50495011725682       0.81679828325406       0.77398831784514
 C       -4.94711054704503       1.35534077167160       0.88349926202854
 H       -5.67238735205864       0.54509384748949       0.75698314036502
 H       -5.12742444803729       1.81573485961412       1.86028477383780
 H       -5.15255044081944       2.10839374975751       0.11504733481601
 C       -3.31832457691584       0.18784503152826      -0.62424666528607
 H       -3.42256619173035       0.93545790272985      -1.41835983366349
 H       -4.07122622470806      -0.58784660430682      -0.79954529645784
 H       -2.34290739076267      -0.29797714126023      -0.74336389179396
 C       -3.27448012662838      -0.25157717104938       1.86170772852011
 H       -3.43640313684588       0.16120874807796       2.86269949157834
 H       -3.96562458134971      -1.09085439564235       1.73032977113163
 H       -2.25654129293171      -0.65106907531248       1.82992831018617
