12
C4H7O optimized with ADF in AMS.
C        0.81668000000000      -0.23471900000000       0.88197500000000
C        0.81678400000000      -0.23413100000000      -0.47719300000000
C       -1.53160000000000      -0.46998000000000      -1.30857600000000
H        0.85636200000000      -1.16386700000000       1.44859300000000
C        0.73893400000000       1.00063500000000       1.66014300000000
H       -1.75224300000000      -1.42324600000000      -0.84366900000000
H        0.86540100000000       0.70149500000000      -1.02879400000000
H        0.99741300000000      -1.14238600000000      -1.04211300000000
H       -1.29572100000000      -0.45322200000000      -2.36675600000000
H       -1.93437200000000       0.42729600000000      -0.85485600000000
O        0.73088900000000       1.05622100000000       2.88164900000000
H        0.69147400000000       1.93590500000000       1.04959600000000
