29

H 	2.519913348	0.199075716	1.291397538
C 	4.048144676	-0.179699970	-0.134863670
C 	2.897525209	-0.459220439	0.511972544
C 	1.914670750	-1.477833430	0.094271696
O 	0.694727390	-1.133997073	-0.019109154
H 	4.370287081	-0.834435122	-0.946414167
C 	4.540561741	2.034326235	0.966272832
C 	5.402198521	3.103670876	1.192139678
C 	6.648478596	3.105739733	0.564209004
C 	7.056218397	2.083663906	-0.288267155
C 	6.180471197	1.020112662	-0.507941073
C 	4.918932001	0.965866639	0.121256808
H 	3.556122852	2.047278617	1.426837626
H 	5.117797066	3.934974797	1.831219204
F 	7.494695515	4.155850401	0.785822969
H 	8.030758565	2.130936387	-0.765926210
H 	6.478880925	0.214078184	-1.175581800
N 	2.274371286	-2.751642598	-0.188284043
C 	1.278162984	-3.683047819	-0.742125988
C 	3.571140342	-3.343741287	0.164183621
H 	0.461470693	-3.115978529	-1.187638837
H 	0.877774589	-4.332123045	0.047979208
H 	1.763615411	-4.305716055	-1.501479521
H 	4.153043388	-3.570930973	-0.738472229
H 	3.397314326	-4.279583600	0.709162667
H 	4.137326986	-2.662772301	0.798048621
Zn	0.073168108	0.828291378	-0.186511080
Cl	-0.754342358	1.040373087	-2.163522932
Cl	0.515879626	1.931882806	1.635492623
