28

H 	1.230067690	-1.733389716	-0.109170408
C 	0.000000000	0.000000000	0.000000000
C 	0.216661944	-1.359645059	-0.000000000
C 	-0.815482006	-2.355687904	-0.000000000
O 	-0.549888228	-3.576361210	-0.218058703
H 	-1.003265559	0.371912098	0.199484963
H 	-0.323811790	1.393016961	-2.410022537
H 	-1.548780109	-0.011634064	-2.398793979
H 	0.252780924	-0.360992385	-2.721791963
C 	-0.518472425	0.327379081	-2.395587295
C 	-2.266755418	-1.992431446	0.231646033
H 	-2.665168422	-1.489559254	-0.660441311
H 	-2.386401329	-1.309576085	1.079525997
H 	-2.842917160	-2.904147266	0.402740274
C 	3.059643744	2.988555313	0.149070136
C 	1.751493305	3.290179006	0.545415593
C 	0.760986842	2.310100445	0.479679161
C 	1.063507999	1.006912617	0.033336207
C 	2.384302820	0.718795299	-0.373441674
C 	3.369445258	1.702156367	-0.313839542
H 	1.505206954	4.287332652	0.903105887
H 	-0.257725543	2.545703648	0.783037433
H 	2.630675365	-0.265153702	-0.763909078
H 	4.381752344	1.469414119	-0.635964046
H 	3.832845791	3.752072772	0.194171022
Zn	1.159314979	-4.338211203	-1.096192242
Cl	1.697802710	-6.212233420	-0.200576117
Cl	1.772348177	-2.918755456	-2.638273661
