28

H 	  1.230068	 -1.733390	 -0.109170
C 	  0.000000	  0.000000	  0.000000
C 	  0.216662	 -1.359645	  0.000000
C 	 -0.815482	 -2.355688	  0.000000
O 	 -0.549888	 -3.576361	 -0.218059
H 	 -1.003266	  0.371912	  0.199485
H 	 -0.323812	  1.393017	 -2.410023
H 	 -1.548780	 -0.011634	 -2.398794
H 	  0.252781	 -0.360992	 -2.721792
C 	 -0.518472	  0.327379	 -2.395587
C 	 -2.266755	 -1.992431	  0.231646
H 	 -2.665168	 -1.489559	 -0.660441
H 	 -2.386401	 -1.309576	  1.079526
H 	 -2.842917	 -2.904147	  0.402740
C 	  3.059644	  2.988555	  0.149070
C 	  1.751493	  3.290179	  0.545416
C 	  0.760987	  2.310100	  0.479679
C 	  1.063508	  1.006913	  0.033336
C 	  2.384303	  0.718795	 -0.373442
C 	  3.369445	  1.702156	 -0.313840
H 	  1.505207	  4.287333	  0.903106
H 	 -0.257726	  2.545704	  0.783037
H 	  2.630675	 -0.265154	 -0.763909
H 	  4.381752	  1.469414	 -0.635964
H 	  3.832846	  3.752073	  0.194171
Zn	  1.159315	 -4.338211	 -1.096192
Cl	  1.697803	 -6.212233	 -0.200576
Cl	  1.772348	 -2.918755	 -2.638274
