24

H 	1.917715594	0.921496657	-0.000693576
C 	0.000000000	0.000000000	0.000000000
C 	1.341210486	0.000000000	-0.000000000
C 	2.192073306	-1.211223803	0.000000000
H 	-0.513330946	-0.962954632	-0.004992968
O 	3.414242657	-1.181690970	-0.006974763
O 	1.471735066	-2.381911738	0.012429386
C 	2.273372528	-3.594578489	0.017186798
H 	2.913837030	-3.626364464	0.904324423
H 	2.900971881	-3.641476245	-0.878536955
H 	1.552976225	-4.414501134	0.029410849
C 	-1.791174089	1.138336194	-1.278412994
C 	-0.914217652	1.205455968	0.002178264
C 	-0.149414017	2.543286804	0.034088833
C 	-1.833933379	1.101892094	1.249648473
H 	-1.246050971	1.150211017	2.173534200
H 	-2.515283778	1.962483510	-1.282421939
H 	-2.347726191	0.194553167	-1.327226053
H 	-1.172259999	1.217275543	-2.179593059
H 	-0.858771203	3.379070325	0.036945574
H 	0.498429330	2.654911074	-0.843160458
H 	0.472666576	2.626588131	0.933007517
H 	-2.556012239	1.927819076	1.255519604
H 	-2.394056169	0.158908051	1.249785346
