28

H 	2.410222534	0.762463823	-0.365371152
C 	4.178380534	-0.219327369	0.298477932
C 	2.875720230	-0.156912828	-0.031362255
C 	1.976328493	-1.305912492	0.023186883
O 	0.760781445	-1.279925648	-0.291112251
H 	4.590192247	-1.175667772	0.624619824
C 	4.536808427	2.249558750	-0.197376236
C 	5.165740829	0.919992495	0.262938574
C 	6.311615291	0.515221908	-0.707327238
C 	5.748328056	1.081057036	1.695486675
H 	6.207468870	0.148694527	2.045614404
H 	5.298609589	3.037078538	-0.202260555
H 	3.730136764	2.565409137	0.473843236
H 	4.127639421	2.170463174	-1.210927476
H 	7.082904353	1.294502454	-0.713598662
H 	5.934253529	0.394315451	-1.728974677
H 	6.780320069	-0.426847606	-0.398419842
H 	6.518001094	1.861927016	1.695820070
H 	4.965139332	1.368135546	2.406149807
O 	2.512492258	-2.457868752	0.443776856
C 	1.618878063	-3.618484957	0.497272111
H 	1.222567419	-3.828687987	-0.499347985
H 	0.795296426	-3.421226943	1.188266317
H 	2.248497990	-4.433783814	0.853806044
B 	-0.110369913	0.092874182	-0.869224577
F 	0.559862842	0.442771511	-2.022537821
F 	0.004565489	1.011700347	0.153079474
F 	-1.354245282	-0.436676349	-1.047783200
