26

H 	1.930386574	0.934363252	-0.008374052
C 	0.000000000	0.000000000	0.000000000
C 	1.373107091	0.000000000	0.000000000
C 	2.227674434	-1.155008878	0.000000000
O 	3.441036342	-1.172320979	-0.012915282
H 	-0.500545652	-0.956429037	0.134408012
H 	-1.599388078	-0.226518410	-2.273100919
H 	0.069011034	0.451594420	-2.753668178
H 	-0.133370040	-1.376206502	-2.423804839
C 	-0.530479427	-0.368931071	-2.378023979
I 	1.207444886	-3.184456124	0.024449418
C 	-2.542682817	3.410148742	0.493356816
C 	-1.200166151	3.598106935	0.136308475
C 	-0.357417590	2.501837331	-0.034683159
C 	-0.842103393	1.189651478	0.148946074
C 	-2.198522372	1.015508946	0.496901273
C 	-3.039108485	2.114120281	0.673765542
H 	-0.812668916	4.603685720	-0.010205314
H 	0.678003867	2.664989496	-0.321986872
H 	-2.584833340	0.007062362	0.632685780
H 	-4.079631524	1.961151395	0.950961409
H 	-3.197192056	4.268865569	0.624118419
B 	4.826782844	0.645576029	-0.414473222
F 	4.361003679	1.388033883	0.599711544
F 	4.325765052	0.852040589	-1.638183660
F 	5.949792525	-0.048230404	-0.263372405
