26

H 	  1.930387	  0.934363	 -0.008374
C 	  0.000000	  0.000000	  0.000000
C 	  1.373107	  0.000000	 -0.000000
C 	  2.227674	 -1.155009	 -0.000000
O 	  3.441036	 -1.172321	 -0.012915
H 	 -0.500546	 -0.956429	  0.134408
H 	 -1.599388	 -0.226518	 -2.273101
H 	  0.069011	  0.451594	 -2.753668
H 	 -0.133370	 -1.376206	 -2.423805
C 	 -0.530479	 -0.368931	 -2.378024
I 	  1.207445	 -3.184456	  0.024449
C 	 -2.542683	  3.410149	  0.493357
C 	 -1.200166	  3.598107	  0.136308
C 	 -0.357418	  2.501837	 -0.034683
C 	 -0.842103	  1.189651	  0.148946
C 	 -2.198522	  1.015509	  0.496901
C 	 -3.039108	  2.114120	  0.673766
H 	 -0.812669	  4.603686	 -0.010205
H 	  0.678004	  2.664989	 -0.321987
H 	 -2.584833	  0.007062	  0.632686
H 	 -4.079632	  1.961151	  0.950961
H 	 -3.197192	  4.268866	  0.624118
B 	  4.826783	  0.645576	 -0.414473
F 	  4.361004	  1.388034	  0.599712
F 	  4.325765	  0.852041	 -1.638184
F 	  5.949793	 -0.048230	 -0.263372
