26

H 	1.621424107	2.457845330	-0.532783084
C 	3.385913835	1.267947339	-0.797765931
C 	2.068016546	1.467869593	-0.468219408
C 	1.141427622	0.470802953	-0.008195567
O 	-0.021317273	0.633107335	0.299042497
H 	3.742600622	0.240893504	-0.833861949
H 	5.502891765	1.246420389	1.017249672
H 	4.091465750	2.238950890	1.722300949
H 	4.029889759	0.372140166	1.765315480
C 	4.491667418	1.283679555	1.404409837
I 	1.927230538	-1.652932107	0.171763864
C 	6.009627883	4.115315358	-2.627074888
C 	4.833081926	4.561031789	-2.008819866
C 	3.968588845	3.651722060	-1.402950367
C 	4.264234469	2.272205729	-1.403250571
C 	5.457807488	1.839605156	-2.019295280
C 	6.318883498	2.750389264	-2.630714334
H 	4.592635151	5.621646251	-1.999259411
H 	3.066011393	4.015406773	-0.918856348
H 	5.699696654	0.778414555	-2.017795148
H 	7.229975650	2.397767336	-3.108724889
H 	6.682238438	4.829006521	-3.097304081
B 	-1.077426870	2.676200679	0.609998737
F 	-0.830924538	3.136869445	-0.624418341
F 	-0.253044538	3.035906601	1.601017960
F 	-2.259253236	2.137368015	0.889811834
