24

H 	1.933485048	0.920414905	-0.009362847
C 	0.000000000	0.000000000	0.000000000
C 	1.350594157	0.000000000	-0.000000000
C 	2.179353417	-1.181676303	-0.000000000
O 	3.413898110	-1.183367901	-0.052653768
H 	-0.519468963	-0.959657753	-0.000283803
C 	-1.746192331	1.145289596	-1.304634398
C 	-0.888886921	1.209686268	-0.005106795
C 	-0.111147103	2.538672746	0.048711316
C 	-1.831378634	1.091977059	1.228802723
H 	-1.260373542	1.125046129	2.163172057
H 	-2.460214572	1.977064138	-1.307001126
H 	-2.311231302	0.207874662	-1.366045886
H 	-1.113739586	1.229256037	-2.195122114
H 	-0.814935437	3.378110621	0.049571580
H 	0.549730494	2.655018293	-0.817429509
H 	0.499318650	2.609621451	0.955840456
H 	-2.538293341	1.929642485	1.225852331
H 	-2.405459993	0.158293007	1.205088618
Br	1.338478242	-2.948165161	0.098564884
Al	4.821492855	0.122635660	-0.174383027
F 	3.965149910	1.572076081	-0.042688460
F 	5.435294479	-0.190534547	-1.696887103
F 	5.757776264	-0.267958538	1.152197996
