24

H 	  1.933485	  0.920415	 -0.009363
C 	  0.000000	  0.000000	  0.000000
C 	  1.350594	 -0.000000	 -0.000000
C 	  2.179353	 -1.181676	 -0.000000
O 	  3.413898	 -1.183368	 -0.052654
H 	 -0.519469	 -0.959658	 -0.000284
C 	 -1.746192	  1.145290	 -1.304634
C 	 -0.888887	  1.209686	 -0.005107
C 	 -0.111147	  2.538673	  0.048711
C 	 -1.831379	  1.091977	  1.228803
H 	 -1.260374	  1.125046	  2.163172
H 	 -2.460215	  1.977064	 -1.307001
H 	 -2.311231	  0.207875	 -1.366046
H 	 -1.113740	  1.229256	 -2.195122
H 	 -0.814935	  3.378111	  0.049572
H 	  0.549730	  2.655018	 -0.817430
H 	  0.499319	  2.609621	  0.955840
H 	 -2.538293	  1.929642	  1.225852
H 	 -2.405460	  0.158293	  1.205089
Br	  1.338478	 -2.948165	  0.098565
Al	  4.821493	  0.122636	 -0.174383
F 	  3.965150	  1.572076	 -0.042688
F 	  5.435294	 -0.190535	 -1.696887
F 	  5.757776	 -0.267959	  1.152198
