24

H 	-0.250274350	0.250667280	-0.197369660
C 	-0.082122710	-1.885714280	-0.099995800
C 	0.381343540	-0.618440160	-0.014294780
C 	1.737230970	-0.259930700	0.333874510
O 	2.167412780	0.894133040	0.442167830
H 	0.608533360	-2.704598180	0.109487500
C 	-1.379983890	-3.287916000	-1.657374690
C 	-1.480891880	-2.305122380	-0.452193070
C 	-2.399431840	-1.120381430	-0.808965080
C 	-2.054817460	-3.074897610	0.777182310
H 	-2.143549070	-2.414432600	1.646946160
H 	-2.381537240	-3.657593190	-1.907609700
H 	-0.746580070	-4.150406860	-1.417292700
H 	-0.965988510	-2.787551510	-2.540098500
H 	-3.399971810	-1.490533710	-1.059290810
H 	-2.018477600	-0.565754980	-1.674299160
H 	-2.499288510	-0.420847400	0.028766060
H 	-3.052304810	-3.456379690	0.527881420
H 	-1.420108790	-3.926800310	1.049276770
Br	3.041996910	-1.674962230	0.672062800
Al	1.497010110	2.686002230	0.284191330
F 	-0.130748720	2.410245140	-0.078360970
F 	2.413638940	3.274026060	-0.984668260
F 	1.790291410	3.287531530	1.816329870
