26

H 	1.948616216	0.925134853	-0.023363892
C 	0.000000000	0.000000000	0.000000000
C 	1.376219784	0.000000000	-0.000000000
C 	2.198455435	-1.157402230	-0.000000000
O 	3.447431413	-1.164849648	-0.039627563
H 	-0.512645052	-0.953202377	0.106271916
H 	0.093394175	0.434663801	-2.816103657
H 	-1.535310033	-0.390522923	-2.422745608
H 	0.029781344	-1.411889770	-2.527593678
C 	-0.456012992	-0.443669134	-2.500068580
Cl	1.424286767	-2.765729433	0.047356650
C 	-2.541156180	3.420038465	0.279573567
C 	-3.072729781	2.127198894	0.365533954
C 	-2.229308033	1.023211861	0.266121559
C 	-0.837164772	1.188186115	0.084419601
C 	-0.315565598	2.499783499	0.001362313
C 	-1.162373853	3.600404085	0.097270429
H 	-4.140918968	1.984133302	0.510127320
H 	-2.639371732	0.017047909	0.330544959
H 	0.749940686	2.657217116	-0.141366774
H 	-0.750062204	4.604306254	0.031163530
H 	-3.197200825	4.284346067	0.352924669
Al	4.776450264	0.150964724	-0.367351307
F 	3.956142222	1.601899610	-0.064425663
F 	5.104696198	-0.095651782	-1.992255609
F 	5.975828480	-0.222629211	0.734477801
