26

H 	1.510916711	2.443549774	-0.398101064
C 	3.239170970	1.181777484	-0.671219040
C 	1.921846758	1.436523525	-0.365045448
C 	0.970816364	0.466029562	0.046456731
O 	-0.215764236	0.696240036	0.363626119
H 	3.568007437	0.145526179	-0.698481695
H 	3.922027773	2.064282316	1.952325645
H 	5.264849996	0.900397615	1.377397856
H 	3.648487615	0.215881919	2.027401922
C 	4.243725013	1.060808885	1.701831914
Cl	1.472033262	-1.244830158	0.146640619
C 	6.085581012	3.984836634	-2.178902191
C 	6.389541482	2.618828724	-2.123908918
C 	5.450887254	1.719729095	-1.623330717
C 	4.187549014	2.166071100	-1.172719718
C 	3.895061125	3.547970707	-1.236408198
C 	4.837364308	4.443729966	-1.733729341
H 	7.355258075	2.259549399	-2.471346643
H 	5.684589548	0.657684704	-1.577358363
H 	2.933477834	3.920396915	-0.894184775
H 	4.601614659	5.504261691	-1.777147623
H 	6.817495650	4.690233951	-2.565577997
Al	-1.218776773	2.270227546	0.712324538
F 	-0.304449500	3.478092287	-0.045929825
F 	-1.157856416	2.347718801	2.385394440
F 	-2.697815705	1.956290273	0.000991181
