38

H 	2.209326000	1.978295000	-1.244313000
C 	3.561016000	0.393541000	-1.604360000
C 	2.428225000	0.919111000	-1.119780000
C 	1.532935000	0.240878000	-0.162286000
O 	1.208046000	0.875806000	0.891686000
H 	3.821763000	-0.639866000	-1.372293000
H 	4.682310840	1.889023380	0.107414580
H 	5.452166130	0.195868420	-0.138382330
H 	3.960278950	0.408016120	0.988841000
C 	4.683987140	0.823569030	0.297055920
N 	1.066433000	-1.006597000	-0.340819000
C 	1.202124000	-1.775244000	-1.585220000
C 	0.243419000	-1.633863000	0.711216000
H 	1.552567000	-1.130195000	-2.389506000
H 	0.219776000	-2.182207000	-1.849708000
H 	1.902743000	-2.609033000	-1.451184000
H 	0.517377000	-2.691336000	0.783123000
H 	-0.818486000	-1.546743000	0.453251000
H 	0.421776000	-1.132666000	1.661498000
C 	4.568855800	1.364737550	-2.837744190
C 	5.996015620	1.771919830	-2.483273640
C 	7.071280780	0.908312090	-2.736972600
C 	8.366692420	1.249057560	-2.335372110
C 	8.600583190	2.462987300	-1.679998200
C 	7.534461350	3.333865920	-1.431913160
C 	6.239502320	2.987679780	-1.827361800
H 	4.568145600	0.815030850	-3.789588580
H 	3.942536980	2.255196410	-2.961489720
H 	6.895812780	-0.035499630	-3.251948230
H 	9.191977490	0.569383360	-2.536126090
H 	9.607449730	2.728841530	-1.366198600
H 	7.708042180	4.277654010	-0.920217130
H 	5.409648140	3.657895320	-1.613078490
Ti	0.032153000	2.446802000	1.524859000
Cl	-1.368860000	4.077932000	2.192050000
Cl	1.679259000	3.857303000	0.876617000
Cl	-1.401005000	1.692293000	-0.083448000
Cl	0.194146000	1.484434000	3.555588000
