38

H 	2.209325787	1.978294610	-1.244313077
C 	3.561015995	0.393540897	-1.604360139
C 	2.428225069	0.919110714	-1.119780316
C 	1.532934816	0.240878129	-0.162286154
O 	1.208045809	0.875805810	0.891686298
H 	3.821762961	-0.639866308	-1.372293369
H 	3.848718474	1.785839871	1.526915441
H 	5.323717545	0.629499540	1.611293797
H 	3.765098701	0.256842965	2.597803374
C 	4.306114023	0.874932989	1.890503509
N 	1.066433221	-1.006597158	-0.340819144
C 	1.202123628	-1.775244043	-1.585219727
C 	0.243419041	-1.633862967	0.711215661
H 	1.552566991	-1.130194703	-2.389505733
H 	0.219775590	-2.182206776	-1.849708215
H 	1.902742862	-2.609032875	-1.451183772
H 	0.517377350	-2.691335942	0.783123496
H 	-0.818486328	-1.546742502	0.453251296
H 	0.421775542	-1.132665501	1.661497629
C 	4.603035346	1.177782468	-2.359666066
C 	5.838542871	1.361017085	-1.483208776
C 	6.798461216	0.344355180	-1.376754715
C 	7.886219694	0.481865787	-0.508795847
C 	8.027993280	1.643405043	0.258388895
C 	7.079572307	2.665878099	0.150509400
C 	5.989181042	2.522898287	-0.711898855
H 	4.878581843	0.638194547	-3.276783937
H 	4.199080449	2.153866211	-2.650502456
H 	6.696106369	-0.559676922	-1.975937469
H 	8.622850851	-0.315059599	-0.433706758
H 	8.872988370	1.751276035	0.934610519
H 	7.181409031	3.570187108	0.745953145
H 	5.242006107	3.311123390	-0.776668264
Ti	0.032153125	2.446802216	1.524858794
Cl	-1.368859826	4.077932358	2.192049610
Cl	1.679259495	3.857303233	0.876617136
Cl	-1.401004927	1.692293399	-0.083447696
Cl	0.194146301	1.484433834	3.555588194
