68

C 	0.000000000	0.000000000	0.000000000
C 	-1.236720739	-0.591976348	0.000000000
C 	-1.490710425	-2.020337823	0.000000000
O 	-2.616192962	-2.524913061	-0.121086064
H 	-6.306501801	-1.064510304	4.096460032
H 	0.871926400	-0.633906035	-0.141088024
H 	-2.135059395	0.009763006	-0.018146527
H 	-5.369688992	0.089723858	-4.292934534
H 	-4.559270453	-1.291529519	-3.535436476
H 	-5.363457560	-2.242146405	3.162688528
H 	-6.217044338	-0.870016722	-3.048879888
C 	0.678392125	-0.073651195	2.326358795
H 	-0.065855168	0.635996518	2.662816455
H 	-6.685127042	-1.349537804	2.388859736
H 	-2.320222323	-1.310761047	2.730221175
H 	1.692966714	0.275300060	2.172262146
H 	0.508519127	-1.129855013	2.497001785
N 	-4.568530610	-0.261417806	-0.996901727
C 	-4.820769377	0.342471859	0.226239068
N 	-4.430745532	-0.426424040	1.311823868
C 	-4.704543181	0.478335668	-2.256463260
H 	-4.025200327	-1.123070107	-0.994626086
C 	-4.903204036	-0.151980220	2.673421624
H 	-4.088450163	-1.362378699	1.110605672
H 	-5.441173640	1.260819852	-2.052098279
C 	-5.868606604	-1.269275955	3.114595114
C 	-5.248290321	-0.457517790	-3.351559611
H 	-4.246010849	3.144412376	-2.596893410
H 	-5.465287796	0.785181978	2.596059754
C 	-3.407411373	1.163834570	-2.689734242
C 	-2.250047001	0.421543745	-2.972833770
C 	-1.076351765	1.056243506	-3.386589893
C 	-1.043392950	2.446782949	-3.535237093
C 	-2.189510682	3.195850072	-3.256651622
C 	-3.359784071	2.557496372	-2.831274930
H 	-2.260500432	-0.660954717	-2.863495689
H 	-0.184517734	0.466406519	-3.587406745
H 	-0.126335964	2.941914944	-3.845152883
H 	-2.169244321	4.279241181	-3.355120085
C 	-3.706529299	0.113704924	3.654446232
C 	-4.247363791	0.414854365	5.070574082
H 	-3.429740489	0.742982559	5.724353874
H 	-4.705612222	-0.466706168	5.531793603
H 	-4.997124241	1.216182935	5.044247032
C 	-2.930268200	1.350662097	3.152342688
H 	-3.581738908	2.230799941	3.100877552
H 	-2.096206985	1.579724363	3.827478759
H 	-2.524924139	1.176635449	2.152718505
C 	-2.748661244	-1.096890591	3.715272977
H 	-3.256371053	-1.999667950	4.074465333
H 	-1.916914681	-0.889597872	4.399598699
O 	-5.337638398	1.462633155	0.334863135
O 	-0.363927617	-2.789589245	0.147349136
C 	-0.585402749	-4.226823055	0.128376335
H 	-1.027808531	-4.533210591	-0.824710321
H 	-1.252662099	-4.521013691	0.944521125
H 	0.403593784	-4.669857501	0.257174139
C 	0.692147733	4.185493255	-0.620481204
C 	-0.583252006	3.740687253	-0.251192615
C 	-0.823724772	2.385932460	-0.039150990
C 	0.211866551	1.442198704	-0.186264481
C 	1.492672467	1.903467714	-0.550252512
C 	1.731074124	3.260214019	-0.771924741
H 	-1.398783495	4.451253137	-0.142330445
H 	-1.826088426	2.066419723	0.226138983
H 	2.301858368	1.184017361	-0.665448198
H 	2.724857087	3.596046566	-1.060332931
H 	0.873969193	5.244420176	-0.790306731
