68

C 	-1.282680790	0.853355740	1.955016470
C 	-0.292114090	0.014752030	1.513780150
C 	0.078737460	-1.252222270	2.117861480
O 	1.035919220	-1.945404160	1.742100940
H 	0.818504140	-3.653642040	-3.793710400
H 	-1.753067260	0.636425470	2.911482300
H 	0.295988990	0.267325630	0.641498600
H 	5.468343250	1.473906760	1.197050080
H 	4.496039990	0.204632350	1.960990930
H 	0.889353540	-3.943986270	-2.044035550
H 	5.406570900	-0.159035830	0.477208530
C 	-3.312190800	-0.140075710	1.054504160
H 	-3.063151450	0.066837750	0.021702970
H 	2.258863000	-3.181913700	-2.874119980
H 	-1.211648010	-2.161052480	-0.425590690
H 	-4.009443120	0.517782670	1.560787720
H 	-3.166294150	-1.144063830	1.435899160
N 	2.778787400	-0.136098280	-0.146682090
C 	2.078734600	-0.256293050	-1.340195810
N 	1.160447780	-1.297447460	-1.338112560
C 	3.619062520	1.035682540	0.134530580
H 	2.485217730	-0.720205300	0.634995570
C 	0.587366440	-1.835870830	-2.579346800
H 	1.163194080	-1.905548780	-0.522282860
H 	3.974925820	1.377356520	-0.842360010
C 	1.165189570	-3.241173600	-2.840847270
C 	4.823780980	0.610942830	0.995301800
H 	3.172461000	3.523577790	-0.885634520
H 	0.935776180	-1.161961550	-3.370034290
C 	2.843429890	2.191279750	0.773652630
C 	2.247408250	2.061464380	2.038834920
C 	1.559779040	3.130603760	2.619613330
C 	1.466320430	4.355049780	1.948531170
C 	2.053948040	4.495304780	0.687796490
C 	2.731864190	3.418517230	0.104292700
H 	2.313338980	1.117140360	2.575598460
H 	1.091300900	3.007035860	3.594101020
H 	0.920701950	5.183216470	2.395077130
H 	1.972492990	5.438456580	0.150704810
C 	-0.981045130	-1.754451320	-2.568185400
C 	-1.544000730	-2.311932250	-3.896223000
H 	-2.625443730	-2.134026390	-3.951684710
H 	-1.382143230	-3.391607460	-3.989349320
H 	-1.078056510	-1.819605270	-4.760110530
C 	-1.388084830	-0.268861000	-2.444196820
H 	-0.966653430	0.324839160	-3.264268760
H 	-2.480429620	-0.165493490	-2.470266470
H 	-1.025241990	0.156006720	-1.504747530
C 	-1.580344940	-2.545795510	-1.383131000
H 	-1.339722830	-3.614030870	-1.442625300
H 	-2.673389200	-2.450416020	-1.378977080
O 	2.252010980	0.499544460	-2.306374960
O 	-0.731099580	-1.632839930	3.159615650
C 	-0.377135450	-2.893325850	3.796745100
H 	0.631174950	-2.837902200	4.219642220
H 	-0.418568970	-3.712349630	3.071667450
H 	-1.120439380	-3.033046600	4.583861260
C 	-2.005376980	4.801229800	0.442936020
C 	-1.207867300	3.912734450	-0.289981460
C 	-0.965739280	2.626035320	0.184963250
C 	-1.523835170	2.194693510	1.405402370
C 	-2.327479840	3.096996160	2.131473440
C 	-2.563433710	4.389230120	1.659202620
H 	-0.759533210	4.227803300	-1.229333670
H 	-0.325825480	1.966453340	-0.392224440
H 	-2.761164590	2.777762000	3.078223230
H 	-3.181181990	5.073457370	2.237472280
H 	-2.188874540	5.806859260	0.069840700
