20

H 	0.242264010	-1.705310710	0.651388600
C 	-0.852075320	-0.167853960	-0.343306250
C 	0.262239200	-0.750413620	0.131457200
C 	1.608964000	-0.177418930	0.016119590
H 	-0.747825320	0.790132820	-0.854804140
O 	2.641478930	-0.635818560	0.417114640
F 	1.619419350	1.063278670	-0.650790290
C 	-3.091299630	0.384715350	0.540708020
C 	-2.270000470	-0.681286740	-0.240076870
C 	-2.378505470	-2.043020440	0.475637740
C 	-2.839456020	-0.800834900	-1.682176930
H 	-2.289796540	-1.552925840	-2.260081410
H 	-4.145867400	0.085023630	0.583259840
H 	-3.033620590	1.364971040	0.052219900
H 	-2.719390850	0.490375780	1.566715170
H 	-3.428991460	-2.354135880	0.522471790
H 	-2.000261460	-1.987772640	1.503464040
H 	-1.821165020	-2.822720890	-0.057012840
H 	-3.894676520	-1.098726140	-1.641871820
H 	-2.774861240	0.156274390	-2.213844670
