20

H 	0.242264006	-1.705310709	0.651388600
C 	-0.852075318	-0.167853959	-0.343306246
C 	0.262239195	-0.750413616	0.131457201
C 	1.608963997	-0.177418934	0.016119590
H 	-0.747825321	0.790132824	-0.854804143
O 	2.641478929	-0.635818562	0.417114642
F 	1.619419348	1.063278669	-0.650790287
C 	-3.091299634	0.384715348	0.540708022
C 	-2.270000470	-0.681286739	-0.240076871
C 	-2.378505474	-2.043020443	0.475637743
C 	-2.839456025	-0.800834899	-1.682176934
H 	-2.289796539	-1.552925838	-2.260081410
H 	-4.145867396	0.085023632	0.583259839
H 	-3.033620595	1.364971038	0.052219898
H 	-2.719390847	0.490375779	1.566715172
H 	-3.428991460	-2.354135877	0.522471787
H 	-2.000261464	-1.987772645	1.503464041
H 	-1.821165017	-2.822720889	-0.057012836
H 	-3.894676522	-1.098726145	-1.641871818
H 	-2.774861244	0.156274393	-2.213844669
