26

H 	-1.902142781	-0.975229044	-0.016532509
C 	0.000000000	0.000000000	0.000000000
C 	-1.361362829	-0.029341352	-0.000000000
C 	-2.256594204	1.102420483	-0.000000000
O 	-3.467859998	1.072814294	-0.003094286
H 	0.490105219	0.968829169	0.087590522
H 	0.100156663	-0.529872845	-2.831197393
H 	1.360078367	0.801264400	-2.461094026
H 	-0.449264228	1.232737575	-2.546037157
C 	0.326924821	0.479091577	-2.509213256
I 	-1.309758591	3.166295984	0.015278548
C 	0.992940952	-1.279026828	1.831396757
C 	0.876206910	-1.209552351	0.275038671
C 	2.292459084	-1.014547741	-0.313288585
C 	0.269311571	-2.528614653	-0.249123946
H 	0.116295919	-2.490252979	-1.333319564
H 	1.650134557	-2.111933475	2.108972240
H 	0.010831165	-1.437648868	2.288493649
H 	1.418412173	-0.355143093	2.240084598
H 	2.958849788	-1.802381659	0.056235402
H 	2.715481931	-0.046641390	-0.018304404
H 	2.281313320	-1.068041883	-1.405539664
H 	0.949708921	-3.359781540	-0.031664683
H 	-0.691291873	-2.756910306	0.224334875
I 	-4.854767050	-1.408086070	-0.184188002
I 	-6.099301901	-3.873747812	-0.381854358
