22

H 	1.928879605	0.919947723	-0.001929073
C 	0.000000000	0.000000000	0.000000000
C 	1.349604728	0.000000000	0.000000000
C 	2.193859062	-1.209372789	0.000000000
H 	-0.504052666	-0.965929721	-0.001363346
O 	3.417212717	-1.184181037	-0.008103842
O 	1.468094935	-2.378208161	0.011260000
C 	2.266480603	-3.593185712	0.009196372
H 	2.909398871	-3.629159900	0.894399439
H 	2.891080984	-3.638393342	-0.888663822
H 	1.543790968	-4.411119635	0.020791001
C 	-2.678645777	3.345673867	0.004126853
C 	-1.294369142	3.570192169	0.023170116
C 	-0.406627985	2.497083936	0.021958736
C 	-0.881824947	1.167317507	0.001140758
C 	-2.277362016	0.959733421	-0.017505279
C 	-3.166987262	2.035568149	-0.017159825
H 	-0.910119544	4.587875769	0.040323255
H 	0.662688419	2.690830561	0.038438645
H 	-2.658843062	-0.059643389	-0.033326148
H 	-4.239177710	1.852313670	-0.032324209
H 	-3.367878516	4.187102944	0.005423087
