22

H 	0.158286220	-1.681025710	0.905292460
C 	-0.829364050	-0.256844060	-0.346177920
C 	0.239688430	-0.795856480	0.278502710
C 	1.617677750	-0.271368050	0.199760150
H 	-0.663187650	0.632844970	-0.953667300
O 	2.570996940	-0.770218160	0.783849980
O 	1.727267370	0.843652960	-0.601663350
C 	3.067684340	1.399928670	-0.696391310
H 	3.760365690	0.660045830	-1.111016890
H 	3.423498030	1.708974780	0.292265710
H 	2.974487330	2.260393920	-1.362121050
C 	-4.913633460	-1.564739620	-0.300811430
C 	-3.949167480	-2.288417870	0.417145410
C 	-2.616830560	-1.881141090	0.416983810
C 	-2.212473510	-0.734785000	-0.303856570
C 	-3.196156490	-0.018279180	-1.020182220
C 	-4.531613550	-0.426372780	-1.019103940
H 	-4.242358200	-3.174505690	0.977087440
H 	-1.884416940	-2.455661260	0.978615830
H 	-2.900436200	0.867796560	-1.580054760
H 	-5.272869800	0.141443100	-1.577913260
H 	-5.952820670	-1.887976580	-0.297803140
