12
C4H6FO optimized with ADF in AMS.
C        0.14371109486501       0.47684287967155       0.05697366260447
C        0.94549570460605      -0.75134363888748       0.30716881396065
H        0.43076863314540      -1.63431528028393      -0.09598422853348
C       -1.24443959206405       0.46859155992349      -0.29424863187542
H        0.63804809882536       1.44155129092122       0.16278356454567
O       -1.92270650437834       1.49425296609508      -0.43540426620391
C        1.27501515718421      -0.97232807542744       1.78187355126403
H        1.90781638924630      -1.85916975901037       1.88445127538708
H        0.35750184881723      -1.13125129560483       2.35693947332192
H        1.80225447036591      -0.10840784951648       2.19623342546211
F        2.15975549204262      -0.64127708815689      -0.41314082421384
H       -1.70962502265568      -0.53303111972392      -0.43637117571928
