24

H 	1.458989240	2.243380650	-0.300887090
C 	3.234875080	1.062431230	-0.544824350
C 	1.912058540	1.254069050	-0.239350530
C 	0.975025850	0.260161660	0.205958460
O 	-0.198777930	0.420171720	0.472802420
H 	3.603369390	0.038833440	-0.578545480
H 	3.898162960	2.015385340	2.011931360
H 	5.330131110	1.011493050	1.364721980
H 	3.816925660	0.146634000	2.045783820
C 	4.305391820	1.055910110	1.715278900
I 	1.773186270	-1.855120180	0.476390470
C 	5.908883800	3.992789580	-2.161321270
C 	4.706711810	4.406853010	-1.569688190
C 	3.824121300	3.467896650	-1.039508380
C 	4.127079500	2.089449460	-1.088508500
C 	5.343929460	1.688123140	-1.681449420
C 	6.223670620	2.629493940	-2.216817260
H 	4.461501100	5.465587340	-1.519435940
H 	2.902620550	3.806259560	-0.572637220
H 	5.591415710	0.628501580	-1.719071410
H 	7.154230420	2.302924120	-2.676310920
H 	6.595596340	4.729263190	-2.573450670
I 	-1.263657770	3.036849840	0.606683600
I 	-2.184622940	5.643688620	0.777780900
