13
C3H4Cl4OTi optimized with ADF in AMS.
H       -0.32437862960041      -1.90236492795603      -0.32962981188241
C       -0.73471997901244       0.14168816015554       0.03401256287575
C        0.07126528016472      -0.88944451097691      -0.25317431202105
C        1.53226624944719      -0.74118798912496      -0.48654185012317
O        2.15193182320937       0.30488324528042      -0.43249719095714
H       -0.33782771316736       1.15109521723829       0.10920466307187
H       -1.79974543866284       0.00254599149377       0.19846852344067
H        2.05938589391438      -1.69500650871847      -0.72857905452502
Ti       2.31666357827406       6.26940676587599       2.14253393990484
Cl       2.48158644178779       4.24600579376191       1.34727758360775
Cl       1.86871282971524       6.17986038259875       4.28113835785167
Cl       0.70672365423066       7.32929074283895       1.10875864175011
Cl       4.20305822969966       7.32980951753275       1.83596562700611
