20

H 	0.292255040	-1.684580564	0.661407322
C 	-0.865431347	-0.174774209	-0.319367978
C 	0.270398889	-0.732820956	0.136276363
C 	1.568191947	-0.074143095	-0.059911646
O 	2.638169549	-0.516020940	0.324069601
H 	-0.770563236	0.785102243	-0.834822251
C 	-3.117172214	0.382150764	0.530290611
C 	-2.284308885	-0.684566390	-0.226652125
C 	-2.395382458	-2.036870196	0.495749931
C 	-2.830445422	-0.819074215	-1.671677493
H 	-2.265170512	-1.564423485	-2.239518660
H 	-4.169276102	0.081559480	0.570000377
H 	-3.065344626	1.356922788	0.034692944
H 	-2.759591085	0.506057637	1.557005205
H 	-3.439811380	-2.361875992	0.528162295
H 	-2.037927567	-1.974937979	1.528088337
H 	-1.821767686	-2.815754503	-0.015654965
H 	-3.879601571	-1.131316998	-1.651273489
H 	-2.773017498	0.131696300	-2.211144101
H 	1.519534544	0.900905631	-0.605548167
