20

H 	0.552281984	-3.183395901	1.249878695
C 	-1.635428225	-0.330275388	-0.603518012
C 	0.510979845	-1.384830906	0.257525004
C 	2.963453291	-0.140110144	-0.113216603
O 	4.985417918	-0.975138251	0.612402791
H 	-1.456153477	1.483628218	-1.577585417
C 	-5.890601767	0.722160282	1.002104020
C 	-4.316718177	-1.293642992	-0.428310441
C 	-4.526616809	-3.849126822	0.936831596
C 	-5.348766659	-1.547825942	-3.159012631
H 	-4.280551893	-2.956331929	-4.232076919
H 	-7.878789972	0.154125081	1.077144604
H 	-5.792661821	2.564212442	0.065560163
H 	-5.214871366	0.956310338	2.942313412
H 	-6.500301429	-4.463298766	0.998082087
H 	-3.851124964	-3.732091894	2.887668451
H 	-3.442641990	-5.321004845	-0.029583597
H 	-7.331384442	-2.137879286	-3.120454651
H 	-5.240243610	0.248869939	-4.178456774
H 	2.871504126	1.702464906	-1.144320191
