32

H 	1.913120020	0.912408644	0.181067101
C 	0.000000000	0.000000000	0.000000000
C 	1.352189182	0.000000000	-0.000000000
C 	2.198953780	-1.194930969	0.000000000
O 	3.218967387	-1.231437715	0.761720205
H 	-0.523352373	-0.951708250	-0.095084891
O 	-3.432904723	4.439274606	0.642828049
H 	-4.367915194	4.169192579	0.603140896
C 	-2.629993094	3.335524919	0.485204269
C 	-1.239617154	3.541105034	0.533093953
C 	-0.377058336	2.466251018	0.380403692
C 	-0.867076213	1.155062571	0.171718079
C 	-2.265947900	0.973870506	0.136063785
C 	-3.142315855	2.045399020	0.288076771
H 	-0.860698952	4.546151499	0.698188179
H 	0.693501933	2.643832398	0.433625725
H 	-2.669064643	-0.026119938	-0.012519388
H 	-4.219155342	1.883590057	0.257879502
N 	1.942869254	-2.278177467	-0.774158847
C 	2.759306775	-3.492770447	-0.610983853
C 	1.013517032	-2.287961774	-1.909948397
H 	3.245156135	-3.478133285	0.363783014
H 	3.529034595	-3.543413637	-1.392293582
H 	2.106751247	-4.368407428	-0.696500041
H 	0.115577254	-2.876723639	-1.681494738
H 	1.516845773	-2.746065217	-2.769456197
H 	0.721687526	-1.270535180	-2.168589460
Ti	4.054775781	-0.237741073	2.412679478
Cl	4.935054661	0.855642307	4.177091255
Cl	4.453471773	1.462194658	0.960298371
Cl	2.006297950	-0.438686532	3.344607729
Cl	5.463290100	-1.986957160	2.508826114
