29

H 	1.527486336	1.711112177	-1.109650586
C 	3.362206713	0.776454656	-0.605860904
C 	1.989461633	0.822505138	-0.689083030
C 	1.089190262	-0.070021541	0.036719499
O 	0.042824458	0.375794089	0.587842165
H 	3.893439155	-0.098399194	-0.233763936
H 	3.384781703	2.628955427	1.331861268
H 	4.675465119	1.356212455	1.763625033
H 	2.880361304	1.021314852	2.089543246
C 	3.634794357	1.601196652	1.569791140
N 	1.393386620	-1.407040636	0.173737883
C 	2.203747020	-2.165291859	-0.786659283
C 	0.570192470	-2.224167457	1.073631445
H 	2.517586871	-1.520646422	-1.607383734
H 	1.602912122	-2.987866761	-1.198738999
H 	3.090335785	-2.598420162	-0.303411860
H 	1.194850191	-3.018810744	1.497380292
H 	-0.271635051	-2.684364247	0.535660779
H 	0.170352104	-1.595930567	1.869927669
O 	4.094342414	1.644618586	-1.358194156
C 	5.536945457	1.594710000	-1.180757237
C 	6.177365613	2.385184128	-2.310311331
H 	5.860997282	0.543116481	-1.190472393
H 	5.783104977	2.026125100	-0.201543110
H 	5.931319845	1.946148705	-3.283404470
H 	7.267302332	2.381898673	-2.190751256
H 	5.830850261	3.424162752	-2.297581626
I 	-0.129209179	2.934313409	1.241632840
I 	-0.295167413	5.618657270	2.039817413
