29

H 	-0.931010823	-0.005426797	1.873071146
C 	0.120329964	-0.041450205	0.008818978
C 	-0.699809595	-0.580981454	0.979531136
C 	-1.172777171	-1.924445195	0.986785277
O 	-1.636814510	-2.443386987	2.065194078
H 	0.304622288	-0.612599359	-0.898694124
H 	1.873344631	-1.168478267	1.914860494
H 	2.858270894	-0.161219694	0.676560191
H 	2.262879602	-1.867493239	0.228408047
C 	2.233988490	-1.017457221	0.902254762
C 	-1.137441169	-2.827751661	-0.217088050
H 	-0.299680542	-3.530448400	-0.104597336
H 	-1.027466661	-2.288439939	-1.160204140
H 	-2.055337552	-3.424340897	-0.236887330
C 	1.192589689	1.826157851	-1.206150470
C 	1.626444847	3.145659700	-1.308792529
C 	1.437864827	3.987525490	-0.214054271
C 	0.834740381	3.555068836	0.968201920
C 	0.404006183	2.235012787	1.054681508
C 	0.569944948	1.346560194	-0.032602743
H 	1.334163572	1.151133214	-2.047840795
H 	2.101190790	3.524703599	-2.209306813
F 	1.862259724	5.280184617	-0.299406980
H 	0.714891214	4.246817631	1.797271781
H 	-0.054992043	1.892436496	1.977573661
Al	-1.240009170	-1.864477569	3.804393810
F 	-1.933298767	-2.995977072	4.821875223
F 	-1.857692503	-0.292484008	3.907705602
F 	0.454414361	-1.839992961	3.750123590
