33

H 	1.919910205	0.898040467	-0.275595136
C 	0.000000000	0.000000000	0.000000000
C 	1.374247836	0.000000000	0.000000000
C 	2.201268146	-1.210353360	-0.000000000
O 	3.128952259	-1.331667674	-0.868693702
H 	-0.524388931	-0.897998417	0.319582724
H 	-0.128955234	0.186212776	-2.694951894
H 	-1.598435315	-0.760856703	-2.070455458
H 	0.039971294	-1.619830273	-2.287911623
C 	-0.523901483	-0.696295438	-2.204310355
N 	1.986206938	-2.224408221	0.874955117
C 	1.215925664	-2.086926288	2.117100606
C 	2.715824270	-3.491683018	0.711354021
H 	0.943802030	-1.044058682	2.276791407
H 	1.832832942	-2.427100658	2.958211273
H 	0.307191336	-2.701838783	2.083486406
H 	2.051778303	-4.316057499	0.992997158
H 	3.604397527	-3.514032463	1.356621680
H 	3.027370106	-3.598275857	-0.327505290
C 	-2.137328917	1.177373972	0.471419902
C 	-2.939706284	2.320752001	0.480440994
C 	-2.453884772	3.530232490	-0.025313166
C 	-1.156396446	3.552497618	-0.536312599
C 	-0.332751490	2.435921909	-0.557439149
C 	-0.823742183	1.223366643	-0.033963530
H 	-2.526157498	0.239494258	0.862696981
H 	-3.950329322	2.272299648	0.878766357
H 	-3.057292822	4.433434128	-0.038642522
F 	-0.678179161	4.728418249	-1.047828635
H 	0.655917221	2.509750061	-1.002569123
Zn	2.975507364	-0.536787182	-2.754543433
Cl	2.957017327	1.633297095	-2.752228955
Cl	2.714933469	-2.247409410	-4.048384039
