33

H 	1.360872845	1.905583478	-1.090726031
C 	3.257922942	1.117312372	-0.500544581
C 	1.894699839	1.060724359	-0.664793419
C 	1.020327719	0.093921990	0.005791717
O 	-0.008077014	0.514667827	0.634520888
H 	3.775852025	0.243636297	-0.110727178
H 	3.075382279	2.979947708	1.451720481
H 	4.564698006	1.913465712	1.753155260
H 	2.875400357	1.322328784	2.269226556
C 	3.485831403	2.004096111	1.685766598
N 	1.291925204	-1.235111616	0.008877308
C 	2.209084004	-1.887371625	-0.933744861
C 	0.492284500	-2.137729024	0.852055070
H 	2.544429238	-1.174043290	-1.685962600
H 	1.681441837	-2.709820739	-1.432675263
H 	3.079124640	-2.302452434	-0.408594802
H 	1.147546541	-2.924789542	1.240694477
H 	-0.313832921	-2.601891771	0.267966095
H 	0.055604077	-1.572052454	1.674837991
C 	5.486381866	1.812860842	-1.353072731
C 	6.334388420	2.721297694	-1.990906178
C 	5.846589739	3.954996173	-2.432146902
C 	4.500060882	4.243691256	-2.211676278
C 	3.630720973	3.362731943	-1.584191244
C 	4.125606366	2.115607021	-1.153892819
H 	5.876539482	0.857275422	-1.008780246
H 	7.381857843	2.472262999	-2.143087574
H 	6.483866699	4.684363728	-2.924034278
F 	4.017626991	5.455504454	-2.626279790
H 	2.600625417	3.661991116	-1.409823235
Zn	-0.043472440	2.332837064	1.585739754
Cl	0.071937244	4.004482244	0.206647296
Cl	-0.014328825	1.848093708	3.691048569
