22

C 	0.723795723	-0.281834868	1.071505318
C 	1.213014837	-0.206416051	-0.209088506
C 	-0.788233800	-0.337312174	-1.597152333
H 	0.706285415	-1.226851635	1.613502769
C 	0.172276931	0.801402457	1.852013769
H 	-1.118252879	-1.294602733	-1.210868266
H 	1.309401298	0.786000519	-0.644988042
H 	-0.286648659	-0.315379929	-2.557917753
H 	-1.245672795	0.571013461	-1.222454501
O 	-0.241633393	0.762360040	2.978547906
I 	0.074753784	2.858188431	0.776248678
C 	3.301853034	-3.284830084	-2.344287344
C 	3.341385066	-1.954974996	-2.779963228
C 	2.650399351	-0.968506074	-2.074480699
C 	1.911498179	-1.288183371	-0.915425578
C 	1.880256852	-2.632833222	-0.489581729
C 	2.565987319	-3.618807521	-1.198549493
H 	3.907173963	-1.688095598	-3.670347550
H 	2.679238631	0.065086936	-2.415836421
H 	1.309943867	-2.911754021	0.393180656
H 	2.527976069	-4.651945844	-0.858815643
H 	3.833173225	-4.057706142	-2.895554008
