29

H 	0.19369700	-1.85361100	-0.24516200
C 	-0.92057800	-0.12292900	0.28183800
C 	0.21368400	-0.77846400	-0.06958500
C 	1.52168400	-0.13059900	-0.22805400
O 	2.57084400	-0.68022200	-0.54313800
H 	-0.93117400	0.95749900	0.37346700
H 	-1.16677900	-1.14795200	3.01281400
H 	-2.10496500	0.45730900	2.86041600
H 	-0.24714600	0.47546500	3.02589200
C 	-1.16197400	-0.07675100	2.85297500
C 	-2.70617800	-1.13198100	-1.13307500
C 	-2.27774000	-0.85018700	0.31024200
C 	-3.29814500	0.05623300	1.00544700
C 	-2.10857600	-2.16055000	1.08513800
H 	-1.77993500	-1.95738100	2.10497900
H 	-3.66728900	-1.64847600	-1.15378800
H 	-1.96534000	-1.75736400	-1.63249000
H 	-2.80193400	-0.19835600	-1.68853400
H 	-4.27589800	-0.42685800	1.04485400
H 	-3.39798000	0.99804700	0.46472500
H 	-2.97770200	0.27467900	2.02473900
H 	-3.05288700	-2.70596200	1.12678600
H 	-1.36362000	-2.79302200	0.60101000
H 	1.51741500	0.92352100	-0.04443900
Sn	3.93691800	0.31396200	-0.73139500
Cl	4.64812000	-1.00985700	-2.56167600
Cl	5.15389100	-1.07804300	0.74831100
Cl	3.22571500	1.63778100	1.09888600
Cl	2.71994400	1.70596800	-2.21110100
