30

H 	1.911538666	0.913317340	0.165083155
C 	0.000000000	0.000000000	0.000000000
C 	1.348143393	-0.000000000	-0.000000000
C 	2.186753360	-1.206848274	-0.000000000
O 	3.216203052	-1.272509791	0.762156659
H 	-0.540966534	-0.935093697	-0.125066294
C 	-0.348365433	2.381735746	0.774818229
C 	-1.182741097	3.481488467	0.955726208
C 	-2.531106527	3.414955864	0.576550207
C 	-3.047166219	2.240557521	0.020376113
C 	-2.194128225	1.157881313	-0.148391993
C 	-0.832242565	1.183040168	0.202610671
H 	0.684360789	2.425739028	1.109392491
H 	-0.788588087	4.388278987	1.407015253
H 	-3.184331838	4.271943234	0.721589083
H 	-4.087758110	2.155199855	-0.280091844
F 	-2.706600936	0.009801430	-0.703622278
N 	1.919901494	-2.281366320	-0.771696507
C 	2.709964628	-3.514337419	-0.603981045
C 	0.994515867	-2.277902587	-1.913753578
H 	3.150397574	-3.534931714	0.391820480
H 	3.512639672	-3.558623051	-1.351571529
H 	2.044842310	-4.373157816	-0.741782828
H 	0.089946186	-2.855897375	-1.687326394
H 	1.499114822	-2.741683000	-2.769103073
H 	0.715657478	-1.258034245	-2.174759101
B 	3.615725117	-0.165108281	1.900012501
F 	2.489253590	-0.015213637	2.702766608
F 	3.931566321	1.001011374	1.200033480
F 	4.688407983	-0.746032299	2.530806225
