30

H 	2.523872059	0.284693904	1.184430635
C 	4.095176279	-0.211089732	-0.157427300
C 	2.907273903	-0.413834556	0.446950967
C 	1.925633060	-1.431653022	0.046730702
O 	0.679167942	-1.134359355	-0.007140069
H 	4.437310302	-0.902795811	-0.923699837
C 	4.549534354	2.110031107	0.737180839
C 	5.428485212	3.166913509	0.958114017
C 	6.765474388	3.071469517	0.546239341
C 	7.222031726	1.916028191	-0.095141541
C 	6.324875641	0.876930609	-0.304262175
C 	4.979709619	0.921265807	0.104554599
H 	3.505224171	2.207000465	1.020752454
H 	5.070412643	4.074067130	1.437847056
H 	7.451334608	3.898176749	0.714518408
H 	8.250359834	1.812089184	-0.430009268
F 	6.783161327	-0.258984346	-0.927694457
N 	2.274924993	-2.692340747	-0.284895675
C 	1.259031928	-3.611995029	-0.827798284
C 	3.579768099	-3.300779600	0.011468190
H 	0.440645923	-3.039350840	-1.261790177
H 	0.862794483	-4.256487154	-0.032332531
H 	1.731354046	-4.237039016	-1.592769744
H 	4.163678626	-3.443075129	-0.906352071
H 	3.407929291	-4.281177806	0.470408183
H 	4.142285766	-2.676737234	0.704405646
B 	0.062887337	0.371186227	0.177799427
F 	0.742065883	1.178639089	-0.729149877
F 	0.318666531	0.725511557	1.503918543
F 	-1.269078506	0.194980902	-0.106525469
