22

H 	  1.942658	  0.921733	  0.007145
C 	  0.000000	  0.000000	  0.000000
C 	  1.362172	  0.000000	 -0.000000
C 	  2.191825	 -1.165826	 -0.000000
O 	  3.433033	 -1.159641	  0.023137
H 	 -0.510938	 -0.962553	  0.007670
C 	 -2.599042	  3.373008	 -0.016220
C 	 -1.210942	  3.576506	 -0.067764
C 	 -0.342584	  2.491319	 -0.061042
C 	 -0.850961	  1.169661	 -0.005622
C 	 -2.253084	  0.982664	  0.042987
C 	 -3.118231	  2.074179	  0.040176
H 	 -0.811756	  4.586759	 -0.113753
H 	  0.729420	  2.663190	 -0.102535
H 	 -2.650924	 -0.029275	  0.085238
H 	 -4.193192	  1.916565	  0.080322
H 	 -3.272082	  4.227332	 -0.021440
Br	  1.363040	 -2.941436	 -0.046680
Al	  4.811379	  0.165493	  0.069962
F 	  3.927049	  1.608185	  0.040848
F 	  5.656161	 -0.156837	 -1.335627
F 	  5.562644	 -0.155920	  1.528054
