22

H 	-0.276945436	0.230008107	-0.102845706
C 	-0.080954813	-1.909698505	-0.020344934
C 	0.376819165	-0.628475322	0.046166126
C 	1.727418377	-0.243172475	0.319841567
O 	2.134119155	0.926886421	0.401850991
H 	0.630677331	-2.716268414	0.154724575
C 	-4.051996962	-3.211687226	-0.837725101
C 	-3.762043780	-1.838271634	-0.861087170
C 	-2.473947633	-1.389088877	-0.595071808
C 	-1.441089768	-2.313868876	-0.301329308
C 	-1.750324519	-3.694948269	-0.284823654
C 	-3.043959754	-4.138879207	-0.548121168
H 	-4.547241860	-1.121504393	-1.088651483
H 	-2.263202776	-0.323477168	-0.617707224
H 	-0.962360144	-4.411104417	-0.060514635
H 	-3.268530130	-5.202471104	-0.529799798
H 	-5.062521960	-3.555354829	-1.046560349
Br	3.090829343	-1.625423911	0.588817214
Al	1.369502930	2.673396694	0.249945791
F 	-0.248044845	2.329834662	-0.110262874
F 	2.237400441	3.327374659	-1.019819125
F 	1.619047477	3.303654825	1.777768226
