22

H 	-0.276945436	0.230008107	-0.102845706
C 	-0.080954813	-1.909698505	-0.020344934
C 	0.376819165	-0.628475322	0.046166126
C 	1.727418378	-0.243172475	0.319841568
O 	2.134119156	0.926886421	0.401850991
H 	0.630677331	-2.716268415	0.154724575
C 	-4.051996964	-3.211687227	-0.837725102
C 	-3.762043781	-1.838271634	-0.861087170
C 	-2.473947634	-1.389088878	-0.595071809
C 	-1.441089769	-2.313868877	-0.301329309
C 	-1.750324520	-3.694948271	-0.284823655
C 	-3.043959755	-4.138879209	-0.548121168
H 	-4.547241862	-1.121504394	-1.088651484
H 	-2.263202777	-0.323477168	-0.617707224
H 	-0.962360145	-4.411104419	-0.060514635
H 	-3.268530132	-5.202471106	-0.529799798
H 	-5.062521962	-3.555354830	-1.046560350
Br	3.090829344	-1.625423912	0.588817214
Al	1.369502931	2.673396695	0.249945791
F 	-0.248044845	2.329834663	-0.110262874
F 	2.237400442	3.327374661	-1.019819125
F 	1.619047477	3.303654827	1.777768227
