28

H 	0.75793700	-1.36255000	0.24429900
C 	-0.92408300	-0.02555200	0.75373100
C 	0.01528100	-0.73472600	-0.25418200
C 	0.72767400	0.22503700	-1.17361700
O 	1.92343400	0.25531800	-1.38226600
H 	-1.47666100	0.73869200	0.18734200
H 	-0.56992500	-1.37659600	-0.92613100
H 	0.50552200	0.03699000	2.42308200
C 	-0.07144800	0.72235400	1.79468700
H 	0.64968200	1.37966800	1.29883100
H 	-0.67772500	1.35266000	2.44771500
C 	-2.96725800	-1.46719200	0.22784000
C 	-2.03949700	-0.96393800	1.35607600
C 	-2.91544000	-0.15680400	2.34109400
C 	-1.45034500	-2.18097500	2.09866300
H 	-0.80171500	-1.88311000	2.92723100
H 	-3.80570100	-2.02960000	0.65081200
H 	-2.46108100	-2.13779800	-0.47201100
H 	-3.38760000	-0.63450300	-0.34707000
H 	-3.77113700	-0.75859300	2.66328400
H 	-3.31067300	0.75295200	1.87552500
H 	-2.37009200	0.13458600	3.24173600
H 	-2.25594900	-2.79003400	2.52191700
H 	-0.87127800	-2.82904200	1.43446700
H 	0.05631700	0.94393900	-1.70589400
B 	4.46958700	-0.90291100	-0.43030500
F 	3.87008000	-1.66739800	0.47584600
F 	4.89716300	0.30453400	-0.09210200
