27

C 	0.066339680	0.399795820	0.350515950
C 	0.900235380	-0.841181980	0.344232280
H 	0.322543570	-1.660338620	-0.103496530
C 	-1.252068760	0.573862440	-0.204411500
H 	0.473221550	1.288418340	0.834284020
O 	-1.811758010	1.693244370	-0.144038140
C 	1.212964330	-1.236006250	1.813831240
H 	1.792431640	-2.163988860	1.860046900
H 	0.280154280	-1.392707780	2.367263380
H 	1.775873600	-0.448370040	2.326645810
C 	-1.959991730	-0.608405690	-0.868639020
H 	-2.956689520	-0.291507910	-1.185321320
H 	-2.049808290	-1.455845370	-0.175985390
H 	-1.397270160	-0.960440840	-1.742933300
C 	1.741663490	-0.372254280	-2.008243010
C 	2.195247120	-0.691700720	-0.563722950
C 	2.972583520	-2.027294040	-0.577575620
C 	3.123361210	0.436175890	-0.061050910
H 	3.473485260	0.249701250	0.960628850
H 	2.611177070	-0.287029150	-2.671638560
H 	1.187262680	0.572570480	-2.053353810
H 	1.095291190	-1.167000470	-2.402251890
H 	3.786055900	-1.977773970	-1.312476600
H 	2.319083810	-2.864335500	-0.856684010
H 	3.422490890	-2.252701930	0.395492620
H 	4.008585220	0.504381120	-0.705800130
H 	2.624043970	1.411304370	-0.080581330
