27

C 	0.065110955	0.401021178	0.351179060
C 	0.900793698	-0.837167227	0.348838463
H 	0.323061615	-1.657627957	-0.095975407
C 	-1.252941078	0.567712827	-0.204777936
H 	0.468393783	1.292220718	0.832792299
O 	-1.819481883	1.681991437	-0.141839286
C 	1.216003924	-1.228821188	1.818626092
H 	1.792982199	-2.157924016	1.865948068
H 	0.284346223	-1.381872091	2.374419518
H 	1.781759297	-0.441552600	2.328531254
C 	-1.952544929	-0.614865407	-0.875825346
H 	-2.950224217	-0.301425936	-1.192060750
H 	-2.038607845	-1.466342122	-0.188004823
H 	-1.386786672	-0.958906647	-1.751023875
C 	1.737216172	-0.365639969	-2.004513496
C 	2.193529544	-0.690123079	-0.562539208
C 	2.964055456	-2.028984489	-0.580446081
C 	3.128544488	0.431843207	-0.060844243
H 	3.479727117	0.242621909	0.959773986
H 	2.604796028	-0.282981115	-2.670413386
H 	1.187024536	0.581563978	-2.046343322
H 	1.086054072	-1.156258513	-2.398555491
H 	3.777169135	-1.981494662	-1.315611454
H 	2.306001354	-2.861500469	-0.861631979
H 	3.413007528	-2.259911376	0.391437004
H 	4.012534159	0.495195851	-0.707375654
H 	2.634984231	1.409798438	-0.079026976
