28

H 	2.416940060	0.756619290	-0.277007630
C 	4.223215380	-0.226191480	0.297434720
C 	2.907857820	-0.168098650	0.013897100
C 	2.016823170	-1.320854670	0.080857690
O 	0.794663630	-1.279578900	-0.226624410
H 	4.650390440	-1.185053390	0.597883530
C 	4.571070150	2.232357060	-0.253009120
C 	5.200410520	0.920935760	0.255043180
C 	6.379439950	0.504475410	-0.671341150
C 	5.742149690	1.119446190	1.703239370
H 	6.198093870	0.199320680	2.088242960
H 	5.327646400	3.025293930	-0.265150160
H 	3.748714170	2.562592180	0.392070030
H 	4.182699690	2.120961460	-1.272249120
H 	7.140331760	1.294284540	-0.675666420
H 	6.034704470	0.351775250	-1.700745660
H 	6.851070040	-0.422767440	-0.322928900
H 	6.506492800	1.906035400	1.701997610
H 	4.936854360	1.419485350	2.383270570
O 	2.549438080	-2.470264640	0.498272420
C 	1.659159960	-3.639033760	0.551373560
H 	1.289204830	-3.864825010	-0.452043920
H 	0.820825430	-3.435632380	1.222122290
H 	2.288128530	-4.443297360	0.932851490
Al	-0.292101350	0.092167170	-0.947727340
F 	0.202580910	0.115537940	-2.555285550
F 	0.189684620	1.458272680	-0.079783470
F 	-1.840353020	-0.469119280	-0.642279440
