28

H 	-1.604705742	-1.394356492	-0.023813201
C 	0.000000000	0.000000000	0.000000000
C 	-1.312402861	-0.347407396	0.000000000
C 	-2.419156523	0.592300906	0.000000000
O 	-3.607994945	0.182161486	0.046026034
H 	0.264402779	1.057812153	0.021730614
O 	4.842416471	-0.732108691	0.150486482
H 	4.825387651	0.238981271	0.218016076
C 	3.552360940	-1.210645891	0.061352484
C 	3.389368057	-2.599466535	-0.041443379
C 	2.102005447	-3.137804858	-0.137170923
C 	0.975964866	-2.317330675	-0.126885453
C 	1.130167839	-0.916785385	-0.020157037
C 	2.432310287	-0.375900073	0.068719304
H 	4.270226976	-3.236211262	-0.048332319
H 	1.981319295	-4.215045947	-0.222673512
H 	2.559432175	0.703879187	0.147168929
H 	-0.012657791	-2.758160758	-0.211507620
C 	-3.470673100	2.931369222	-0.058682316
C 	-2.185379190	2.095533126	-0.062064528
H 	-4.064139668	2.738049958	0.840166234
H 	-4.096863064	2.694375080	-0.924580751
H 	-3.221989768	3.997631153	-0.091172900
H 	-1.545908229	2.367247399	0.790889254
H 	-1.585284351	2.306194058	-0.959162598
Zn	-4.406641893	-1.729360558	0.351804839
Cl	-5.989815704	-1.449549139	1.774228823
Cl	-3.320517718	-3.198837645	-0.817093490
