65

C 	-1.902504547	0.190182855	1.786984842
C 	-0.719905628	-0.418452586	1.585382486
C 	-0.330276619	-1.717825283	2.150563878
O 	0.783705856	-2.205213788	1.888334788
H 	-1.563624307	-0.893834330	-0.982941296
H 	-2.647749896	-0.289040958	2.426071329
H 	0.032516063	0.046194658	0.958356126
C 	-1.242690464	-3.633004926	-1.288663057
H 	-0.667990331	-4.532715037	-1.536743800
H 	-2.298916085	-3.922923202	-1.224036624
H 	-0.935781907	-3.295015004	-0.292070433
H 	2.395649855	-2.738665868	-3.119990191
H 	1.443032996	-4.035870822	-2.368353413
H 	1.088843231	-3.514027632	-4.029134325
H 	5.204756095	0.901408691	1.566650574
H 	4.258926905	-0.485802636	2.134363273
H 	5.088349618	-0.568938193	0.563373681
N 	2.429483582	-0.425595869	0.102791099
C 	1.789198261	-0.486729849	-1.105132208
N 	0.954558655	-1.571390032	-1.218775740
C 	3.303610362	0.671820069	0.536837539
H 	2.119573800	-1.085976976	0.820308216
C 	0.433963480	-2.088206483	-2.494096407
H 	0.998274840	-2.240360804	-0.453338598
H 	3.613171615	1.177120841	-0.382287298
C 	1.391306580	-3.167093507	-3.036134017
C 	4.540977695	0.091254051	1.244994923
H 	2.791897635	3.286632819	-0.014876898
H 	0.461277468	-1.234145650	-3.178397905
C 	2.562262234	1.686514430	1.405328520
C 	2.030227108	1.325782543	2.653554373
C 	1.360694517	2.264128855	3.442633115
C 	1.218434742	3.583820094	2.996605340
C 	1.742089863	3.952381788	1.753629000
C 	2.405411539	3.007080142	0.962586086
H 	2.131317499	0.302992124	3.010837373
H 	0.950826884	1.967262453	4.405995507
H 	0.699516217	4.316188911	3.611363615
H 	1.626701905	4.972863501	1.394188776
C 	-1.062031412	-2.524403616	-2.351376244
C 	-1.575796818	-3.038863322	-3.715547172
H 	-2.657181597	-3.216458503	-3.666635971
H 	-1.098121370	-3.980530607	-4.006269682
H 	-1.391351039	-2.302592879	-4.508048405
C 	-1.895743387	-1.289456461	-1.945071662
H 	-1.799921883	-0.490495290	-2.689926741
H 	-2.957160692	-1.555209084	-1.861230787
S 	1.981742266	0.669070517	-2.328592932
C 	-1.292835010	-2.484288715	3.046019377
H 	-1.579600780	-1.883780444	3.917851831
H 	-0.812869170	-3.407349114	3.378121317
H 	-2.212438685	-2.727419321	2.499088948
C 	-3.676439720	1.290481637	0.453521284
C 	-2.338523377	1.516647495	1.210677548
C 	-1.291980380	2.129600746	0.259532706
C 	-2.589543620	2.481625726	2.404129374
H 	-1.660018592	2.668021184	2.951486874
H 	-4.055000865	2.248443312	0.077191561
H 	-4.439328002	0.858710715	1.113637316
H 	-3.535923063	0.617865354	-0.398747303
H 	-1.666245755	3.080600025	-0.136599934
H 	-1.077683789	1.474103601	-0.590733144
H 	-0.350685602	2.333130302	0.776056404
H 	-2.968688913	3.440432016	2.029971197
H 	-3.330996285	2.070255174	3.100505347
