23

H 	1.911811117	0.929985555	0.049057007
C 	0.000000000	0.000000000	0.000000000
C 	1.352002481	0.000000000	0.000000000
C 	2.210869439	-1.185338987	0.000000000
O 	3.430343532	-1.126545404	0.334604097
H 	-0.539166115	-0.950248974	-0.001656510
C 	-2.257698100	1.009273359	-0.004324432
C 	-3.123655507	2.101984398	0.018264397
C 	-2.570103010	3.377520411	0.086570193
C 	-1.191532590	3.594211564	0.134860694
C 	-0.340028803	2.495174980	0.108467419
C 	-0.856677382	1.179684003	0.035077879
H 	-2.671635131	0.004055848	-0.055215385
H 	-4.202484443	1.978848436	-0.013924997
F 	-3.404902573	4.457017382	0.110599711
H 	-0.806550733	4.608394910	0.194031973
H 	0.732829773	2.662080698	0.153013027
N 	1.709462139	-2.393380802	-0.361278061
H 	2.332830877	-3.192425899	-0.352620705
H 	0.792013807	-2.491541816	-0.772911654
Zn	4.615149314	0.393740712	1.083137229
Cl	3.902146086	2.361001545	0.476656489
Cl	6.177937418	-0.558195397	2.208077806
