30

H 	2.488825820	0.009539910	1.304102000
C 	4.083391130	-0.300703980	-0.052334740
C 	2.922365500	-0.622003640	0.531892310
C 	1.989910570	-1.671683050	0.033072250
O 	0.802673780	-1.353481990	-0.238687570
H 	4.446246200	-0.919691620	-0.877910740
C 	4.436407530	1.718006290	1.456368510
C 	4.945176410	0.909965980	0.245484170
C 	4.926603130	1.812162400	-1.020773960
C 	6.395605330	0.424021000	0.508489930
H 	6.778248640	-0.156036690	-0.341191710
H 	5.094668450	2.576579500	1.633238150
H 	4.426363290	1.107690510	2.368251720
H 	3.424212470	2.100332660	1.282456760
H 	5.573163210	2.685524610	-0.869109480
H 	3.909653670	2.162212130	-1.229968570
H 	5.291454720	1.266505960	-1.900083630
H 	7.061521690	1.282633130	0.659882670
H 	6.441819380	-0.207760910	1.404241480
N 	2.425327930	-2.953576020	-0.151008370
C 	1.514498290	-3.947254000	-0.738957220
C 	3.682602510	-3.493110500	0.383336130
H 	0.705829030	-3.429971410	-1.255640200
H 	1.087268600	-4.591025150	0.042751530
H 	2.075271840	-4.572742610	-1.443645180
H 	4.345461040	-3.810075700	-0.433345670
H 	3.464015930	-4.368086840	1.010605410
H 	4.191053420	-2.740812450	0.984528690
I 	0.250291230	1.250037450	-0.648339520
I 	-0.312972130	3.945748900	-1.132189690
