32

H 	1.902088551	0.930104067	0.188189388
C 	0.000000000	0.000000000	0.000000000
C 	1.375922059	0.000000000	0.000000000
C 	2.293424195	-1.147890284	-0.000000000
O 	3.381478147	-1.037066162	0.639744359
H 	-0.528477443	-0.941680943	-0.116352301
H 	-0.542198530	1.761421778	-1.984157096
H 	-1.479857549	0.191391181	-2.305776827
H 	0.304265421	0.343542361	-2.816999601
C 	-0.528020415	0.704679277	-2.222905729
N 	1.996632294	-2.343795395	-0.597931760
C 	2.885755828	-3.489726458	-0.366508827
C 	0.992679109	-2.536937293	-1.645928275
H 	3.415134196	-3.353336114	0.576299217
H 	3.624196637	-3.585306289	-1.175519081
H 	2.279889871	-4.402488835	-0.332710467
H 	0.196836607	-3.213834133	-1.305658730
H 	1.470376408	-2.985578296	-2.527259960
H 	0.554144336	-1.586938778	-1.937868961
C 	-0.242645035	2.174192016	1.296269893
C 	-1.046575165	3.147773568	1.887706001
C 	-2.441906059	3.047262189	1.823992987
C 	-3.033241232	1.960683851	1.170928917
C 	-2.207988789	1.007696849	0.590103341
C 	-0.804442253	1.074262941	0.614228889
H 	0.835955196	2.244356401	1.396094783
H 	-0.582196848	3.976262473	2.416133614
H 	-3.070377242	3.802608645	2.289339668
H 	-4.111711127	1.843604652	1.109677351
F 	-2.802566271	-0.057607207	-0.049286775
I 	3.446557712	0.666340659	2.677500920
I 	3.443807312	2.437215441	4.852396281
