14
C4H7I2O optimized with ADF in AMS.
H        0.08336323314569      -1.73935649170917       0.32653170394750
C       -0.68482843378380       0.26103299500811       0.90205200826296
C        0.30275715691481      -0.67062331620265       0.30772180858217
C        1.53775745850795      -0.28369433440367      -0.30896302884529
O        1.95224234197791       0.88176281755521      -0.41338164865945
H       -0.29825909607903       1.28231490927528       0.86767513247952
H       -1.52545023599359      -1.12382196686746       2.38329935908582
C       -1.10283810406659      -0.11473950065887       2.33743866090526
H       -0.24668944103584      -0.07300184761413       3.01755488957827
H       -1.86018573993292       0.58600204875777       2.70185811571548
H       -1.58818647124766       0.24483873564141       0.26856309534509
H        2.14765361711524      -1.11872056012494      -0.71617185211600
I        1.73190801764794       4.20209621155385      -0.00207519189211
I        1.53184546682991       6.86784446978927       0.34677987761077
