29

H 	1.968332537	0.882434294	0.425282917
C 	0.000000000	0.000000000	0.000000000
C 	1.495966398	0.000000000	0.000000000
C 	2.343462725	-1.156566473	-0.000000000
O 	3.383419582	-1.247153134	0.771165058
H 	-0.436578908	-0.762734858	-0.652042857
H 	-1.684221782	1.346028214	-0.243054254
H 	-0.326350735	1.661798429	-1.360071373
C 	-0.593609747	1.369580872	-0.337240507
H 	-0.203956089	2.134091296	0.345702432
N 	2.102284578	-2.237163813	-0.795243693
C 	2.880731811	-3.469738362	-0.610287474
C 	1.293799842	-2.169851773	-2.015920650
H 	3.210117609	-3.542804092	0.425827362
H 	3.765616208	-3.474849630	-1.261511278
H 	2.244402164	-4.323230115	-0.867905598
H 	0.372514640	-2.757861913	-1.913409444
H 	1.876121797	-2.581869227	-2.849656322
H 	1.047135904	-1.133603260	-2.246809870
C 	-0.426406317	-1.834402029	1.688611890
H 	-0.776247892	-1.964204131	2.717617759
H 	0.545398850	-2.342874457	1.601184329
H 	-1.142702579	-2.314637314	1.011592157
N 	-0.378620171	-0.398536614	1.394523897
H 	0.210064927	0.086797060	2.077005495
B 	3.592285039	-0.372159947	2.096030367
F 	2.393604191	-0.475168784	2.832313390
F 	3.836793352	0.943286343	1.699045277
F 	4.660693018	-0.972181479	2.723156181
