29

H 	1.491314680	1.786792850	1.296587090
C 	3.519401690	1.089076280	0.797340560
C 	2.029749160	0.949361280	0.857798130
C 	1.226470810	0.128859430	-0.002766360
O 	0.116600050	0.551228560	-0.528203830
H 	4.033291380	0.152066380	0.560904660
H 	5.194535160	1.864295300	1.936968600
H 	3.959096580	1.033985420	2.924694430
C 	4.119494170	1.698845560	2.066782610
H 	3.645841940	2.662423260	2.291746100
N 	1.590230180	-1.144527320	-0.332617360
C 	0.840644820	-1.874088000	-1.366992090
C 	2.515026420	-1.950941090	0.473040720
H 	0.402077080	-1.165099960	-2.069110720
H 	0.033674100	-2.469332500	-0.917123480
H 	1.532378490	-2.546180340	-1.886860720
H 	3.443975070	-2.154338900	-0.076259320
H 	2.035419820	-2.909572100	0.708638750
H 	2.743505920	-1.439989260	1.408833750
C 	3.791643130	1.361190640	-1.705066720
H 	4.032798440	2.131790710	-2.444451020
H 	2.837020990	0.901876050	-2.002566420
H 	4.579155120	0.598155200	-1.724328140
N 	3.764998690	1.988713710	-0.377401280
H 	3.107650420	2.774170820	-0.367836020
B 	-0.284298000	2.095409790	-0.677007770
F 	0.842146130	2.751722230	-1.220770250
F 	-0.590769560	2.569861210	0.600520170
F 	-1.359482740	2.074024180	-1.541160670
