29

H 	1.480570288	1.766067595	1.316942980
C 	3.512692531	1.096196317	0.811333962
C 	2.026644980	0.936205763	0.874430400
C 	1.224295256	0.122707176	0.008202369
O 	0.109681184	0.551179350	-0.500186084
H 	4.044017128	0.161975687	0.605296387
H 	5.166424090	1.929651661	1.941818131
H 	3.929375963	1.118044329	2.942946156
C 	4.092576837	1.754903070	2.065006591
H 	3.604413866	2.719145777	2.251152063
N 	1.588096822	-1.141808404	-0.348054295
C 	0.836633970	-1.852408678	-1.391979460
C 	2.522910541	-1.957172111	0.432673602
H 	0.398198045	-1.132116796	-2.082139661
H 	0.029274272	-2.453804744	-0.951943038
H 	1.526191812	-2.516997322	-1.923545642
H 	3.446931029	-2.146884449	-0.128776542
H 	2.050047577	-2.921657423	0.656595719
H 	2.757867691	-1.461667982	1.374604972
C 	3.813611153	1.301022945	-1.691815514
H 	4.052618436	2.052999179	-2.450431394
H 	2.875223896	0.811688042	-1.992770290
H 	4.615885263	0.553967743	-1.673739023
N 	3.749350180	1.965930017	-0.386346301
H 	3.073067344	2.734042934	-0.409240076
B 	-0.273130086	2.100181831	-0.636394717
F 	0.840303940	2.733334949	-1.227107071
F 	-0.517398674	2.589221089	0.647721274
F 	-1.382785193	2.095831845	-1.450922099
