27

H 	-0.349022520	0.429033090	-1.216210580
C 	1.584511290	0.288056720	-2.135739010
C 	0.716518300	0.617332200	-1.120707450
C 	1.075700090	1.144435390	0.154764860
O 	0.338390950	1.310804560	1.122408340
H 	2.628515000	0.570925400	-2.021009510
H 	1.430980470	-2.286849100	-1.006263890
H 	2.909448140	-2.252942740	-2.149991720
H 	3.012521130	-1.462680660	-0.456609110
C 	2.419956510	-1.913500630	-1.244459490
Br	2.987393120	1.657024930	0.429473250
C 	0.536518740	-1.098241280	-6.045964310
C 	1.860327310	-0.759498510	-5.738622080
C 	2.184326120	-0.313959010	-4.457758440
C 	1.192077920	-0.193879000	-3.458524300
C 	-0.138434260	-0.539709220	-3.784636550
C 	-0.459429210	-0.985131670	-5.065097140
H 	2.635941010	-0.844553370	-6.496786390
H 	3.213602440	-0.053960770	-4.216556450
H 	-0.922231830	-0.464399590	-3.035757780
H 	-1.488191910	-1.246278130	-5.302596060
H 	0.280539410	-1.447949500	-7.043877470
Ti	-1.750531680	0.624864200	1.746007330
Cl	-2.393682110	2.022379780	0.109418630
Cl	-3.788095450	-0.060930520	2.335739350
Cl	-0.956547900	-1.394703560	1.136837190
Cl	-1.122205410	1.468581230	3.703541370
