27

H 	1.574837114	1.603722327	-0.912150321
C 	3.459398303	0.662741057	-0.510274120
C 	2.102368812	0.749053933	-0.495860998
C 	1.206186226	-0.220627329	0.069968829
O 	-0.009886674	-0.155407133	0.099376830
H 	3.914712291	-0.231370621	-0.089970751
H 	3.647128625	2.198602837	2.222137216
H 	5.253612307	1.241186897	2.338210545
H 	3.621029935	0.381359212	2.689044834
C 	4.171899645	1.267267697	2.396760272
Br	2.014402049	-1.848184071	0.926206516
C 	6.252757121	3.466482528	-2.107904800
C 	6.690746613	2.264732664	-1.539210667
C 	5.762218315	1.362111553	-1.024594306
C 	4.377510867	1.640684262	-1.068790802
C 	3.951852338	2.858136510	-1.648843580
C 	4.881593615	3.758206877	-2.160831038
H 	7.752853314	2.035460171	-1.496817352
H 	6.098386513	0.429049890	-0.577218015
H 	2.893504284	3.099331423	-1.696330942
H 	4.542080076	4.691376886	-2.604022121
H 	6.974413394	4.174786199	-2.508409450
Ti	-2.026923453	0.886766289	-0.287015459
Cl	-2.312611838	-0.926528202	-1.551381227
Cl	-4.027167121	1.799991948	-0.612168969
Cl	-0.812871474	2.568063130	-1.157579199
Cl	-2.113195806	0.755702446	1.936448526
