35

H 	1.475562810	2.014274920	0.324671840
C 	3.514264700	1.151503920	0.493855730
C 	2.022519780	1.076623630	0.279328410
C 	1.296580070	-0.014726840	-0.314821560
O 	0.265280320	0.164751070	-1.083026040
H 	3.975021420	0.174366500	0.304088690
H 	4.956280280	1.664773300	2.053827290
H 	3.491870850	0.872752740	2.664640120
C 	3.869948790	1.593459220	1.930857380
H 	3.428743220	2.570072610	2.159489390
N 	1.660730270	-1.313798820	-0.119216310
C 	1.034257030	-2.371934240	-0.929655420
C 	2.419293970	-1.777095790	1.049903990
H 	0.803139780	-1.987030880	-1.922923420
H 	0.104072480	-2.723047590	-0.462262740
H 	1.738168970	-3.207835030	-0.999955990
H 	3.384829530	-2.201492550	0.747005390
H 	1.840109780	-2.558668820	1.558755120
H 	2.579646060	-0.959132070	1.750836360
O 	3.260401140	2.627067750	-4.185338590
H 	2.474014070	2.047024340	-4.094187380
C 	3.815150190	2.787643590	-2.940196010
C 	4.638591620	3.897483140	-2.697382050
C 	5.133821210	4.107572860	-1.408017550
C 	4.799958460	3.250737370	-0.347329290
C 	4.013581340	2.119613620	-0.599182940
C 	3.564567410	1.876215450	-1.907828080
H 	4.851942160	4.591480920	-3.506536110
H 	5.767896420	4.971218790	-1.216526480
H 	2.966979600	0.998962460	-2.131292140
H 	5.157913250	3.474660430	0.652689510
B 	-0.037357640	1.357742210	-2.103963130
F 	0.855695530	1.134864850	-3.190300560
F 	0.210302790	2.577169990	-1.480478320
F 	-1.351815010	1.161483580	-2.459167660
