35

H 	1.506144826	2.026257222	0.388086520
C 	3.534708766	1.140435781	0.521970947
C 	2.041332269	1.083324063	0.323004357
C 	1.303452458	0.015507136	-0.295028438
O 	0.274161512	0.227652921	-1.056365922
H 	3.983893426	0.161141779	0.319659088
H 	5.008414907	1.644774827	2.050839867
H 	3.556078124	0.849251071	2.687409091
C 	3.919919623	1.574112498	1.950868593
H 	3.484439312	2.548788175	2.196070692
N 	1.648104661	-1.290871192	-0.125483396
C 	1.009681052	-2.322207402	-0.958488321
C 	2.405375404	-1.784875716	1.029630886
H 	0.771787373	-1.907781693	-1.937838896
H 	0.082050358	-2.681947603	-0.493056931
H 	1.707635055	-3.159613079	-1.059319433
H 	3.364425727	-2.213975611	0.714377120
H 	1.820177479	-2.569316799	1.526433293
H 	2.578141957	-0.981856809	1.744401854
O 	3.265472768	2.509461677	-4.179515103
H 	2.487933035	1.918975454	-4.076972145
C 	3.800431557	2.720884386	-2.935178707
C 	4.553659505	3.880878076	-2.701252735
C 	5.019828674	4.141779575	-1.410944315
C 	4.724771266	3.285039942	-0.339719667
C 	4.010665327	2.105845159	-0.581694046
C 	3.593287242	1.813691222	-1.890142384
H 	4.731065639	4.575162009	-3.518513041
H 	5.596923113	5.045721515	-1.227370073
H 	3.048833432	0.899988305	-2.102432899
H 	5.054823977	3.545330551	0.660702645
B 	0.051808875	1.393611146	-2.123532797
F 	0.916754405	1.052993694	-3.202150774
F 	0.399265149	2.615301013	-1.562032130
F 	-1.273485602	1.285293334	-2.466061352
