32

H 	-1.370542499	1.764040487	-0.220108340
C 	-0.019534428	0.131854199	-0.413708589
C 	-1.276685595	0.695102784	-0.380979917
C 	-2.575129078	0.014007172	-0.272909796
O 	-3.467537203	0.549646523	0.447719816
H 	0.057325061	-0.952583350	-0.473034764
H 	1.339609604	1.233392220	-2.468545808
H 	1.123278625	-0.574171297	-2.809926436
H 	-0.247118982	0.619613482	-3.197143291
C 	0.672876737	0.402918054	-2.664828186
N 	-2.833268843	-1.196917775	-0.859660980
C 	-4.089554697	-1.885938309	-0.538186489
C 	-2.088389392	-1.753933425	-1.989107062
H 	-4.443889297	-1.555661208	0.438148427
H 	-4.863370949	-1.665532022	-1.287678030
H 	-3.905655911	-2.966534193	-0.529215149
H 	-1.637304954	-2.719277323	-1.720582488
H 	-2.772221256	-1.919223506	-2.833220617
H 	-1.307577631	-1.068672589	-2.306027478
C 	3.536204095	1.951091182	1.182677370
C 	2.337826736	2.674616048	1.160766738
C 	1.175233955	2.102299464	0.643376940
C 	1.189832656	0.791931789	0.127293791
C 	2.399496658	0.070405005	0.167815199
C 	3.561805665	0.643084062	0.685262703
H 	2.301900901	3.682530470	1.567744284
H 	0.250152851	2.669448933	0.673658257
H 	2.424510223	-0.947366947	-0.218531289
H 	4.484866928	0.067730064	0.707670686
H 	4.438139524	2.398232134	1.594425759
I 	-2.656375555	2.185399859	2.396159876
I 	-1.763642026	3.863614402	4.455271252
