22

H 	-0.602360103	0.204008373	-0.594404960
C 	-0.434433462	-3.828878556	0.021122442
C 	0.512714917	-1.430753373	-0.059236719
C 	3.095464565	-1.003649494	0.595701356
O 	4.215131418	1.078907187	0.593727246
H 	0.860554258	-5.326577268	0.599213538
C 	-7.834742787	-6.499862114	-1.654537872
C 	-5.939243543	-8.172583040	-0.898618563
C 	-3.534659718	-7.263164665	-0.360477507
C 	-2.971634474	-4.662069772	-0.565548048
C 	-4.915868496	-2.998866710	-1.332800108
C 	-7.313289732	-3.915824258	-1.869233727
H 	-6.338631935	-10.180142245	-0.731185635
H 	-2.060177065	-8.567549905	0.228905411
H 	-4.550117167	-0.988486315	-1.507932690
H 	-8.791136113	-2.616212534	-2.456597428
H 	-9.717923037	-7.204027349	-2.078110181
H 	4.228647889	-2.657097830	1.163973830
Al	3.422655232	4.513133972	-0.255503381
F 	0.254336560	4.497697366	-0.645132317
F 	5.054215476	4.901891926	-2.939768366
F 	4.428929693	6.085385912	2.295952892
