25

H 	2.495884639	0.758255996	0.218647711
C 	4.291725061	-0.318084936	0.580615963
C 	2.962333220	-0.222150837	0.307403044
C 	2.119292919	-1.366101285	0.112829742
O 	0.877793910	-1.225581241	-0.105185842
H 	4.806964771	-1.275872131	0.681873888
O 	5.040314263	0.774221993	0.741824799
C 	6.462812661	0.565972124	1.063927393
C 	7.118576717	1.930810788	1.160426643
H 	6.904505529	-0.045037517	0.266249224
H 	6.517073878	0.018193403	2.013324459
H 	7.040873761	2.468222412	0.209478151
H 	8.179961165	1.806682172	1.405226065
H 	6.648657271	2.532878449	1.945174462
C 	1.560840569	-3.869284534	0.061502468
C 	2.651470245	-2.792426418	0.133479278
H 	0.972453243	-3.774287937	-0.855525567
H 	0.871636308	-3.788080632	0.908009955
H 	2.020787126	-4.863143005	0.080660349
H 	3.346589137	-2.895136560	-0.713380908
H 	3.259557505	-2.922176233	1.039030530
Al	-0.362601167	0.180080693	-0.132899338
F 	0.570392662	1.575445235	-0.347389670
F 	-1.059484953	0.063001782	1.391352795
F 	-1.342428019	-0.207633113	-1.436816496
