20

H 	  1.937512	  0.916896	 -0.001156
C 	  0.000000	  0.000000	  0.000000
C 	  1.354852	  0.000000	 -0.000000
C 	  2.165539	 -1.203019	  0.000000
O 	  3.373164	 -1.292255	 -0.004460
H 	 -0.506454	 -0.964477	 -0.000268
C 	 -2.646341	  3.354837	  0.001031
C 	 -1.260254	  3.572303	  0.009131
C 	 -0.379914	  2.494481	  0.008664
C 	 -0.869617	  1.168057	  0.000486
C 	 -2.267444	  0.966828	 -0.007912
C 	 -3.147838	  2.048945	 -0.007489
H 	 -0.870279	  4.587487	  0.015959
H 	  0.690557	  2.680717	  0.014551
H 	 -2.655405	 -0.049960	 -0.014271
H 	 -4.221314	  1.875416	 -0.013483
H 	 -3.329162	  4.201410	  0.001710
F 	  1.425830	 -2.380538	  0.005349
I 	  4.995858	  1.058589	  0.023617
I 	  6.465430	  3.397775	  0.059205
