25

H 	-1.765718357	-1.210549698	-0.000623370
C 	0.000000000	0.000000000	0.000000000
C 	-1.328094539	-0.215247749	-0.000000000
C 	-2.274288897	0.905807612	-0.000000000
O 	-3.489812804	0.789931161	-0.003204242
H 	0.330591268	1.042492758	0.000071535
C 	1.990181564	-0.737391309	-1.263240117
C 	1.130013974	-1.001318587	-0.000077793
C 	0.646609650	-2.460945363	0.000921074
C 	1.991673000	-0.736610774	1.261580055
H 	1.417573476	-0.913991594	2.176037638
H 	2.858342513	-1.404360606	-1.274199320
H 	2.358411794	0.293158331	-1.289227366
H 	1.414288390	-0.913732844	-2.176765885
H 	1.504077252	-3.140651175	0.000106280
H 	0.044511915	-2.687775935	-0.883948831
H 	0.046918995	-2.687219965	0.887590002
H 	2.860902406	-1.402259185	1.270995154
H 	2.358549446	0.294450957	1.287421093
H 	-1.801579185	1.917734310	0.003333749
Sn	-6.636663993	3.233961477	0.008889307
Cl	-8.502646351	4.626072450	0.038130392
Cl	-5.972036839	2.985820143	-2.197379671
Cl	-4.973514439	4.264688491	1.259601708
Cl	-7.246925047	1.201321156	0.932826132
