25

H 	-2.190100340	0.100465290	-0.339087550
C 	-0.766678940	-1.498977720	-0.233491300
C 	-1.169447060	-0.217137480	-0.138910100
C 	-0.209402630	0.827550660	0.248254540
O 	-0.451332180	2.020467010	0.365702200
H 	0.285047350	-1.697363430	-0.006520330
C 	-0.857485330	-3.358176590	-1.861438950
C 	-1.544179130	-2.738882770	-0.614894860
C 	-3.024314570	-2.460035750	-0.926176070
C 	-1.440032630	-3.746408370	0.560833130
H 	-1.917112550	-3.354181830	1.464058570
H 	-1.353775750	-4.294832490	-2.136824120
H 	0.196618210	-3.583112990	-1.668796760
H 	-0.908021460	-2.681475950	-2.719808470
H 	-3.532937610	-3.391902730	-1.192456580
H 	-3.137069300	-1.770142660	-1.767757900
H 	-3.545073620	-2.034468590	-0.063077090
H 	-1.936553270	-4.685725470	0.295175820
H 	-0.397019890	-3.976756510	0.801208580
H 	0.817357220	0.437532900	0.444370510
Sn	3.071919670	3.859347240	1.150825580
Cl	5.080714430	4.960927100	1.555214360
Cl	2.927867030	3.442569160	-1.126067500
Cl	3.134484780	1.854252190	2.324962670
Cl	1.335988830	5.192538020	1.898900940
