25

H 	-1.665003709	0.042536422	-0.298645360
C 	-0.601163842	-1.815243200	-0.289059436
C 	-0.723665307	-0.482159947	-0.154712390
C 	0.431385495	0.349911501	0.199637203
O 	0.399034481	1.562886100	0.335953095
H 	0.393332819	-2.238399565	-0.121736921
C 	-1.181724281	-3.566809812	-1.930798811
C 	-1.651562387	-2.840120985	-0.643825443
C 	-3.042872331	-2.227472479	-0.874280459
C 	-1.718969718	-3.864595287	0.518162373
H 	-2.048959309	-3.387845757	1.446119078
H 	-1.886654055	-4.362366400	-2.193163649
H 	-0.195793233	-4.023022929	-1.796221848
H 	-1.121134346	-2.873904307	-2.775481849
H 	-3.761676114	-3.012469763	-1.127956887
H 	-3.035882470	-1.507356267	-1.697901927
H 	-3.412921834	-1.717643430	0.020229782
H 	-2.427022821	-4.663720854	0.275684861
H 	-0.743492373	-4.325598125	0.703296680
H 	1.386045658	-0.211330592	0.344869824
Sn	2.985882314	4.447365924	1.265521422
Cl	4.459415478	6.160455427	1.826540613
Cl	3.170327048	4.071964677	-1.013947863
Cl	3.614841425	2.560936265	2.464912812
Cl	0.847694672	5.130071625	1.831004418
