25

H 	-2.190100345	0.100465293	-0.339087547
C 	-0.766678941	-1.498977718	-0.233491301
C 	-1.169447062	-0.217137483	-0.138910096
C 	-0.209402632	0.827550662	0.248254544
O 	-0.451332178	2.020467010	0.365702205
H 	0.285047348	-1.697363425	-0.006520333
C 	-0.857485326	-3.358176588	-1.861438951
C 	-1.544179135	-2.738882771	-0.614894860
C 	-3.024314574	-2.460035746	-0.926176068
C 	-1.440032627	-3.746408369	0.560833128
H 	-1.917112552	-3.354181826	1.464058568
H 	-1.353775749	-4.294832486	-2.136824120
H 	0.196618206	-3.583112991	-1.668796764
H 	-0.908021461	-2.681475954	-2.719808469
H 	-3.532937614	-3.391902733	-1.192456578
H 	-3.137069297	-1.770142660	-1.767757898
H 	-3.545073623	-2.034468589	-0.063077092
H 	-1.936553272	-4.685725466	0.295175825
H 	-0.397019893	-3.976756513	0.801208580
H 	0.817357217	0.437532900	0.444370514
Sn	3.071919667	3.859347245	1.150825580
Cl	5.080714429	4.960927104	1.555214358
Cl	2.927867027	3.442569162	-1.126067497
Cl	3.134484782	1.854252195	2.324962671
Cl	1.335988834	5.192538017	1.898900942
