26

H 	1.483856207	2.653723900	0.847558801
C 	3.330662654	1.493992704	0.309935863
C 	1.867910579	1.827834403	0.256319290
C 	0.876772324	1.116311537	-0.524273430
O 	-0.362850858	1.288238875	-0.350590473
H 	3.424941436	0.411853088	0.495712979
H 	5.091452978	1.964082190	1.514271026
H 	3.558935364	2.002875701	2.420777488
C 	4.034316056	2.244201442	1.463635221
H 	3.974432841	3.327905197	1.311686496
N 	1.305160069	0.200453842	-1.455829057
H 	0.589205251	-0.214276617	-2.042341012
H 	2.246467925	0.252381367	-1.830339898
C 	3.885065822	3.016386826	-1.666200575
C 	4.525291652	3.268371601	-2.881841692
C 	5.309693215	2.283226824	-3.494554691
C 	5.428823164	1.054572920	-2.854517503
C 	4.801918441	0.774967232	-1.641760378
C 	4.021055607	1.769103000	-1.033243347
H 	3.273193654	3.788683362	-1.206949810
H 	4.413849755	4.237508829	-3.362208668
H 	5.815476781	2.456099677	-4.440087185
F 	6.190195394	0.075507118	-3.435843344
H 	4.934960678	-0.201114832	-1.181020557
I 	-1.129959334	1.960756891	2.097140136
I 	-1.965530385	2.567090903	4.697737909
