27

H 	1.846878153	-1.268548099	-0.044634128
C 	0.000000000	0.000000000	0.000000000
C 	0.763383493	-1.291870902	0.000000000
C 	0.169029428	-2.607581991	0.000000000
O 	0.827695200	-3.650462769	-0.332194280
H 	-0.730847844	-0.052540146	-0.823565897
H 	0.363248803	2.127400391	-0.322384501
H 	1.467346226	1.051525297	-1.218821631
C 	0.938019260	1.196991761	-0.271293960
H 	1.677892827	1.297301685	0.531501817
N 	-1.139041914	-2.749693100	0.341517094
H 	-1.646400862	-2.000743351	0.800773213
H 	-1.523051733	-3.687659530	0.357010950
C 	-2.285064459	0.566292360	3.658455120
C 	-0.920968356	0.255220975	3.721119449
C 	-0.188330033	0.068556027	2.546790884
C 	-0.806552944	0.191918356	1.290810889
C 	-2.174531147	0.500965146	1.237751453
C 	-2.910528576	0.689769469	2.414106922
H 	-0.429104235	0.156202835	4.686262126
H 	0.869947181	-0.178074823	2.603228112
H 	-2.663310235	0.601577675	0.269786691
H 	-3.968823705	0.934844104	2.356021334
H 	-2.854952119	0.710970112	4.573396382
Zn	2.231667439	-3.642627650	-1.825303710
Cl	3.501566579	-5.368233292	-1.775929043
Cl	1.829630593	-1.797121205	-2.935089388
