27

H 	1.279590480	2.120209160	1.017619980
C 	3.356115140	1.495906200	0.422527040
C 	1.856737010	1.493374970	0.341394910
C 	1.076262720	0.650494950	-0.536178310
O 	-0.193979100	0.568876520	-0.467408420
H 	3.685041380	0.456487080	0.597790100
H 	4.938717340	2.304029510	1.691639750
H 	3.401481780	2.013023280	2.546005900
C 	3.848166980	2.359591440	1.607216640
H 	3.568346680	3.409203980	1.460979940
N 	1.715060340	-0.125237520	-1.459239090
H 	2.677349840	0.065518710	-1.719906800
H 	1.133150290	-0.644327310	-2.108733090
C 	5.177976000	2.758252070	-3.321491110
C 	4.194898440	3.549545760	-2.712915690
C 	3.606591770	3.140585170	-1.513541810
C 	3.996009850	1.936501510	-0.901518340
C 	4.980827200	1.149271050	-1.518187380
C 	5.571112120	1.557901100	-2.721194420
H 	3.885618630	4.484860820	-3.175179440
H 	2.840732580	3.758309290	-1.047867730
H 	5.295856960	0.218036880	-1.048099860
H 	6.338075330	0.940470500	-3.184573090
H 	5.634549330	3.076928210	-4.256106210
Zn	-1.612190860	1.497187380	0.693958790
Cl	-3.485539890	1.291038960	-0.344396250
Cl	-0.744772470	2.352823790	2.499209680
