27

H 	1.098126594	2.552846022	0.643263460
C 	3.145519450	1.692719329	0.342381488
C 	1.668571976	1.805485640	0.102392530
C 	0.901307475	0.948647316	-0.770238948
O 	-0.370753396	0.862651948	-0.691119466
H 	3.353451063	0.644282013	0.612017288
H 	4.651940175	2.453790511	1.725559401
H 	3.016548479	2.320656632	2.424062970
C 	3.583584802	2.584545428	1.525181039
H 	3.406690914	3.642253376	1.297324757
N 	1.545228034	0.187924356	-1.694656073
H 	2.515069741	0.362926681	-1.935563237
H 	0.979577083	-0.385132597	-2.310390882
C 	5.468335559	2.542224736	-3.236636028
C 	4.489408422	3.444450228	-2.801732331
C 	3.740222248	3.169548510	-1.655521436
C 	3.958733892	1.989614477	-0.924144706
C 	4.939722290	1.089955669	-1.369077711
C 	5.692827441	1.364450226	-2.517396849
H 	4.308985361	4.361656178	-3.357984123
H 	2.977728115	3.872622823	-1.326505017
H 	5.119320627	0.173703942	-0.808532556
H 	6.453763250	0.659820216	-2.845874151
H 	6.050919180	2.756810066	-4.129592113
Zn	-1.374642776	0.928988859	1.094484280
Cl	-3.473407381	1.287624763	0.850837130
Cl	0.175007253	0.563796112	2.599266975
