32

H 	2.033370557	0.904041507	0.081908778
C 	0.000000000	0.000000000	0.000000000
C 	1.495286859	-0.035885638	-0.000000000
C 	2.282860212	-1.224914115	0.000000000
O 	3.553221885	-1.186256479	0.145598092
H 	-0.387160327	-0.783497718	-0.666440387
H 	-1.638295169	1.362335844	-0.460792029
H 	-0.200513015	1.588435475	-1.487178753
C 	-0.543248607	1.365584389	-0.470203004
H 	-0.198192345	2.167524625	0.192068327
C 	2.646736358	-3.753680245	-0.205320081
C 	1.650861000	-2.589507198	-0.170175699
H 	3.227952935	-3.801822313	0.720725227
H 	3.355294579	-3.643531624	-1.032518477
H 	2.108886542	-4.699516904	-0.329993651
H 	0.929610468	-2.718099008	0.650937419
H 	1.040839753	-2.567633362	-1.086186541
C 	0.059182201	0.307018816	2.537858905
C 	-0.371956893	-0.006717126	3.828238570
C 	-1.340227816	-0.995248105	3.983117789
C 	-1.885946669	-1.680387119	2.899110432
C 	-1.437343615	-1.358213697	1.615423772
C 	-0.474155487	-0.357666253	1.417474242
H 	0.823947508	1.068464469	2.408275661
H 	0.034696626	0.496760666	4.700696329
F 	-1.769821509	-1.309156002	5.242349819
H 	-2.641183962	-2.443694942	3.065313392
H 	-1.851182511	-1.885971829	0.758463749
B 	4.452525080	0.181814019	0.464635897
F 	4.267426733	1.002061599	-0.640279828
F 	5.717793837	-0.314531073	0.607917320
F 	3.895093344	0.700394918	1.629568009
