32

H 	1.347847660	2.295276390	0.633198660
C 	3.419116340	1.496293090	0.422234220
C 	1.924806020	1.426346270	0.326572920
C 	1.188161410	0.308007480	-0.167642630
O 	-0.090453860	0.271879520	-0.131466620
H 	3.817913500	0.489677330	0.606497170
H 	4.953835890	2.443294410	1.652211230
H 	3.451655050	2.065142480	2.533719270
C 	3.860808900	2.420916490	1.580981710
H 	3.506295940	3.445091170	1.417687200
C 	0.958731720	-1.943038210	-1.374786850
C 	1.893414610	-0.900990520	-0.748263960
H 	0.382434460	-1.507202770	-2.198127210
H 	0.244761350	-2.327822590	-0.640055790
H 	1.545955210	-2.781057290	-1.766442710
H 	2.634012420	-0.544868090	-1.478489870
H 	2.484786840	-1.352500970	0.065811250
C 	3.568797860	3.152793900	-1.531281240
C 	4.121218820	3.586334630	-2.740051360
C 	5.095521180	2.798601140	-3.349705630
C 	5.530479360	1.596290960	-2.793797050
C 	4.962726870	1.176417680	-1.586296750
C 	3.990316490	1.950895750	-0.933240570
H 	2.806794840	3.763238800	-1.051972960
H 	3.806761650	4.516016550	-3.206842750
F 	5.644711990	3.219294030	-4.532720630
H 	6.297385070	1.010992700	-3.294673010
H 	5.296710090	0.241993660	-1.138535280
B 	-1.090966660	1.414532630	0.570966210
F 	-0.656267030	1.486899880	1.889788070
F 	-2.334365660	0.866781770	0.403097510
F 	-0.863567620	2.582365750	-0.149423630
