32

H 	1.430472425	2.147216480	0.939150826
C 	3.498327607	1.424310889	0.539177862
C 	2.005717258	1.333345031	0.507395341
C 	1.264882913	0.299828922	-0.138413789
O 	-0.008038612	0.359042181	-0.251004091
H 	3.925371300	0.421902806	0.683109438
H 	5.089258886	2.390700131	1.673782995
H 	3.659147440	1.971091070	2.648728001
C 	3.995167812	2.343897021	1.674317410
H 	3.609539233	3.361308878	1.544167519
C 	1.002320219	-1.955297111	-1.327820248
C 	1.951720031	-0.915366537	-0.723265756
H 	0.409761216	-1.521736488	-2.139355394
H 	0.302348777	-2.335893427	-0.577066570
H 	1.578193305	-2.797140404	-1.726697383
H 	2.665177406	-0.553060088	-1.478697784
H 	2.573927993	-1.364489754	0.065927400
C 	3.389737216	3.044529601	-1.436066518
C 	3.813558861	3.491319777	-2.689120624
C 	4.816998741	2.781249566	-3.343061257
C 	5.404835122	1.643701119	-2.792853655
C 	4.963138612	1.206905759	-1.541052608
C 	3.964949182	1.904155027	-0.844294476
H 	2.598050453	3.585187002	-0.923837158
H 	3.374836884	4.367801730	-3.157460166
F 	5.239744025	3.211091256	-4.569958466
H 	6.186532157	1.120770115	-3.337039775
H 	5.409750976	0.318593775	-1.098773313
B 	-0.964287940	1.646317374	0.207970905
F 	-0.794769154	1.750877305	1.582102213
F 	-2.211361299	1.253856944	-0.190244981
F 	-0.444668335	2.731878071	-0.490796977
