20

H 	1.927719956	0.924771625	-0.004194337
C 	0.000000000	0.000000000	0.000000000
C 	1.354206636	0.000000000	0.000000000
C 	2.207339490	-1.173799265	0.000000000
O 	3.419401297	-1.178903464	-0.013389144
H 	-0.506272234	-0.964168605	0.000538679
C 	-2.639468110	3.357641786	-0.004379012
C 	-1.253050699	3.573696184	0.005590924
C 	-0.374078064	2.495398841	0.006613805
C 	-0.865375689	1.169295630	-0.001784549
C 	-2.263694428	0.969623240	-0.012046157
C 	-3.142478300	2.052380147	-0.013504686
H 	-0.861971817	4.588298960	0.012782078
H 	0.696418904	2.680752589	0.014195486
H 	-2.652167187	-0.046751478	-0.019316555
H 	-4.216013274	1.880195073	-0.021908959
H 	-3.321393482	4.204840251	-0.004782666
Cl	1.351470851	-2.806424454	0.016872198
I 	4.902646561	1.283145948	-0.132266030
I 	6.214571873	3.710722444	-0.267672060
