20

H 	0.019961280	0.023951270	-0.073285980
C 	-0.008500880	-2.112767970	-0.088257970
C 	0.587240700	-0.900742740	0.016124910
C 	1.999505100	-0.653086380	0.250017770
O 	2.529446850	0.433906800	0.343707610
H 	0.618287610	-2.998334330	0.013542900
C 	-4.140951840	-2.960793630	-0.784076120
C 	-3.713040390	-1.625353780	-0.728281830
C 	-2.372792240	-1.325667490	-0.500834300
C 	-1.424705530	-2.361288040	-0.325691620
C 	-1.872419840	-3.700231630	-0.386324580
C 	-3.217145140	-3.997665100	-0.612126020
H 	-4.431372580	-0.819230090	-0.862274090
H 	-2.059238290	-0.285609420	-0.461597570
H 	-1.151854960	-4.505555050	-0.254111560
H 	-3.544772020	-5.034299350	-0.655613050
H 	-5.189953790	-3.188289650	-0.962300710
Cl	3.072800990	-2.143966740	0.416982990
I 	1.008713150	2.853505860	0.005141800
I 	-0.567505880	5.090483360	-0.351935910
