31

H 	1.920158000	-0.912741000	0.109840000
C 	0.000000000	-0.000000000	0.000000000
C 	1.348338000	0.000000000	0.000000000
C 	2.146350000	1.222778000	0.000000000
O 	3.200683000	1.314518000	0.726939000
H 	-0.543607000	0.945958000	-0.045331000
H 	-1.045047360	0.150682660	-1.902193750
H 	0.294301100	-1.169636630	-1.778416860
H 	0.772868860	0.615922360	-2.036549040
C 	-0.000678180	-0.136034000	-1.924653410
N 	1.891967370	2.301617570	-0.772712580
C 	2.957710980	2.985705530	-1.525952320
C 	0.548832320	2.871239050	-0.938183150
H 	3.930299420	2.634168210	-1.185215080
H 	2.860724230	2.780013940	-2.600291000
H 	2.865343560	4.064566970	-1.359574520
H 	0.413438030	3.764066320	-0.313517930
H 	0.422880040	3.164652930	-1.987151970
H 	-0.208839930	2.130603490	-0.682784450
O 	-0.726005000	-1.131456000	0.090424000
C 	-2.171149000	-0.955818000	0.255736000
C 	-2.792437000	-2.335044000	0.394090000
H 	-2.342216000	-0.343282000	1.150779000
H 	-2.560858000	-0.422766000	-0.622921000
H 	-2.522538000	-2.794589000	1.350475000
H 	-3.884427000	-2.253981000	0.340326000
H 	-2.453857000	-2.988452000	-0.417432000
B 	3.698264000	0.207077000	1.810816000
F 	4.809241000	0.798586000	2.367887000
F 	2.643020000	0.027540000	2.698108000
F 	3.988307000	-0.946869000	1.076060000
