31

H 	1.672287878	-0.765414599	0.475788128
C 	-0.139720208	0.101336255	-0.114517412
C 	1.225193429	0.149718359	0.100191646
C 	2.175416574	1.223438028	-0.065535152
O 	3.391736128	1.067219594	0.338701227
H 	-0.753058047	0.968474890	-0.341319747
H 	-1.053469048	-0.105662913	-2.736003689
H 	-0.094843763	-1.577105030	-2.130621795
H 	0.800733264	-0.096558154	-2.772974755
C 	-0.115420979	-0.521071937	-2.376714777
N 	1.904844438	2.441702149	-0.616943782
C 	2.918642532	3.510645239	-0.558119438
C 	0.654322431	2.801964605	-1.286400431
H 	3.683902051	3.251352702	0.170700363
H 	3.390699973	3.644088279	-1.540661272
H 	2.425614244	4.445995404	-0.269693598
H 	-0.103730377	3.153962735	-0.571048377
H 	0.864164832	3.615423581	-1.986227406
H 	0.258659372	1.961686913	-1.856376050
O 	-0.810694345	-0.958148448	0.405994019
C 	-2.250941643	-0.973464637	0.184925957
C 	-2.839419659	-2.102293140	1.014322194
H 	-2.663005942	0.002390688	0.481532050
H 	-2.437788503	-1.121947403	-0.887420762
H 	-2.638253259	-1.947459346	2.079603782
H 	-3.924855893	-2.141062799	0.864597559
H 	-2.412627606	-3.065306130	0.714318834
B 	3.981620376	-0.138186311	1.236413629
F 	5.289096566	0.241582790	1.450320740
F 	3.206532433	-0.173582573	2.395087292
F 	3.855430191	-1.304691390	0.476680961
