67

C 	-3.029918328	-0.691681827	3.261789008
C 	-1.106046988	-0.906250515	1.066507227
C 	0.996787974	-2.802411252	1.490880226
O 	2.112598232	-3.954453361	-0.167151567
H 	5.582594241	-10.048043964	-8.851062165
H 	-1.916347623	-0.555646736	5.013632797
H 	-2.005527672	-1.327273994	-0.748107877
H 	13.816815916	0.273008053	-0.968340623
H 	12.080135006	-2.285301606	0.333210381
H 	4.674977662	-9.378033857	-5.699032513
H 	13.426563377	-2.573164909	-2.710798520
C 	-4.574840470	-3.154487713	3.432363984
H 	-5.773422375	-3.433995045	1.768638238
H 	7.770504899	-8.679449446	-6.741052953
H 	-5.781879297	-3.205578047	5.105646548
H 	-3.318423647	-4.796345549	3.552240197
N 	8.311587082	-2.258768623	-3.295866780
C 	7.801245868	-2.964424427	-5.784712317
N 	5.512073876	-4.225388856	-6.028376268
C 	10.094689189	-0.212202298	-2.668795332
H 	6.882904110	-2.483066226	-2.045791651
C 	4.999545191	-5.996861438	-8.099418440
H 	4.615313792	-4.643417346	-4.391460048
H 	10.646094888	0.619819397	-4.477798857
C 	5.781437819	-8.689310528	-7.307771537
C 	12.497358057	-1.259392329	-1.414434531
H 	8.226688509	4.300085233	-4.306516878
H 	6.245591216	-5.399249422	-9.636011198
C 	8.740204991	1.816461065	-1.117380771
C 	8.250763449	1.522506853	1.474740831
C 	6.936383076	3.365772303	2.831434157
C 	6.087126625	5.553555670	1.626271847
C 	6.564629350	5.876372179	-0.948626055
C 	7.872642971	4.025089887	-2.299103580
H 	8.902290184	-0.153391375	2.469413673
H 	6.591097119	3.097503192	4.842597786
H 	5.076476886	6.998313710	2.686461474
H 	5.924956641	7.578451183	-1.910817906
C 	2.209459735	-5.701257609	-9.092857952
C 	1.781511582	-7.499662416	-11.351501229
H 	-0.049369530	-7.107797015	-12.234820201
H 	1.770621846	-9.487332989	-10.783397135
H 	3.238154071	-7.256296116	-12.803183131
C 	1.830567379	-2.958968466	-10.014814680
H 	3.165230391	-2.483733432	-11.524557623
H 	-0.084836401	-2.704069148	-10.758723964
H 	2.109663563	-1.602505215	-8.482591554
C 	0.225668599	-6.290030091	-7.033037125
H 	0.379414336	-8.229860546	-6.329396072
H 	-1.682827476	-6.073469480	-7.808196734
H 	0.372657280	-5.010281349	-5.416234224
H 	-0.091716497	0.890870393	0.819242252
C 	-2.956172749	4.153184500	3.366156541
C 	-4.681137432	1.799878567	3.208632449
C 	-6.439590122	1.866932002	5.545266632
C 	-6.324604388	1.998529582	0.804437873
H 	-7.643913412	0.415740938	0.630902773
H 	-4.105272610	5.866591996	3.535332024
H 	-1.769714475	4.394838349	1.690819770
H 	-1.715459720	4.074254646	5.023345725
H 	-7.420973615	3.686926213	5.641883037
H 	-5.374838639	1.643771901	7.308626733
H 	-7.893964921	0.400715574	5.486837944
H 	-7.456683279	3.730720994	0.858961687
H 	-5.183181746	2.071308056	-0.918684157
H 	1.582898153	-3.053785266	3.505805544
O 	9.242868323	-2.507022265	-7.561805984
