36

H 	2.092989701	0.324078886	-0.218967727
C 	0.000000000	0.000000000	0.000000000
C 	1.309423479	-0.393041375	-0.000000000
C 	1.777028926	-1.772747324	0.000000000
O 	2.798203655	-2.129215079	-0.698325378
H 	-0.779652507	-0.718777656	0.241806447
H 	0.219914512	-0.223921741	-2.774202285
H 	-1.597334981	-0.434017226	-2.362426106
H 	-0.388761723	-1.806736570	-2.040136369
C 	-0.569056099	-0.761074640	-2.263608152
N 	1.158510890	-2.757422197	0.697940195
C 	0.277056906	-2.520924956	1.849023052
C 	1.577661158	-4.155796313	0.501568837
H 	0.319085298	-1.474715799	2.148616563
H 	0.619807574	-3.143690184	2.684160126
H 	-0.760349129	-2.793537565	1.616695717
H 	0.711270866	-4.802454446	0.673363612
H 	2.374242857	-4.426469919	1.207546725
H 	1.951005450	-4.288811003	-0.513457508
C 	-1.873299385	1.651861706	-0.424177581
C 	-0.433286402	1.459797663	0.103875729
C 	0.521904438	2.417027442	-0.640031869
C 	-0.422018086	1.796767895	1.626888663
H 	0.585679129	1.685860949	2.041410469
H 	-2.242861570	2.646938251	-0.150367163
H 	-2.557419591	0.908383569	0.004534266
H 	-1.912993820	1.568145096	-1.513833896
H 	0.145641544	3.444081565	-0.567548347
H 	0.597097618	2.151566480	-1.699836009
H 	1.530802326	2.403838302	-0.215213646
H 	-0.751715510	2.831399367	1.780971032
H 	-1.100956354	1.139178010	2.184588779
B 	3.590433148	-1.196237632	-1.758406879
F 	4.497042992	-2.063151862	-2.324672774
F 	4.177527008	-0.170252442	-1.016067599
F 	2.634665031	-0.717057135	-2.658329113
