68

C 	-1.602006100	1.046231870	1.721342420
C 	-0.567520280	0.251757210	1.323083790
C 	-0.115835990	-0.995490960	1.955206050
O 	0.920005980	-1.586322530	1.563828780
H 	0.701734570	-4.180461050	-3.432424640
H 	-2.091536860	0.849734350	2.677114680
H 	0.020085940	0.525553310	0.453088210
H 	5.497594310	1.511187700	-0.034263710
H 	4.904409330	0.003457820	0.699411750
H 	0.826893990	-4.117281590	-1.662168710
H 	4.998526570	0.153569360	-1.079103960
C 	-3.498446430	-0.291086310	0.823295610
H 	-3.364262350	-0.018537210	-0.216184410
H 	2.176380240	-3.557880430	-2.669038100
H 	-1.290300760	-2.164606580	-0.426137780
H 	-4.307291000	0.167853860	1.380980930
H 	-3.141609230	-1.264743420	1.137055300
N 	2.367196570	0.149668170	-0.383929430
C 	1.930673200	-0.310154320	-1.600005160
N 	1.122204320	-1.409448130	-1.491224370
C 	3.335520220	1.235338330	-0.199523240
H 	2.119561430	-0.416453460	0.430486670
C 	0.530189680	-2.156097830	-2.605623120
H 	1.000238480	-1.790974600	-0.553052790
H 	3.240428680	1.870102680	-1.086305420
C 	1.084150450	-3.593172620	-2.591367230
C 	4.781046960	0.688817710	-0.148486450
H 	3.191790370	3.937291710	-0.003693440
H 	0.886689780	-1.650789200	-3.509756290
C 	3.003763770	2.059992420	1.038477880
C 	2.751588980	1.461465550	2.285334600
C 	2.510572100	2.244888970	3.418227030
C 	2.526161740	3.641971740	3.327211570
C 	2.772858020	4.248423980	2.090995050
C 	3.005310980	3.460948690	0.957661540
H 	2.740690950	0.377584690	2.381474070
H 	2.312284930	1.763325020	4.374207860
H 	2.340076090	4.251087170	4.209602660
H 	2.777328160	5.333500960	2.005482920
C 	-1.036665040	-2.044387480	-2.603965440
C 	-1.601796750	-2.762691660	-3.851414960
H 	-2.680931150	-2.581040140	-3.934672260
H 	-1.452247240	-3.847190540	-3.803858020
H 	-1.126627060	-2.390288560	-4.768108760
C 	-1.422564960	-0.549258850	-2.676511580
H 	-0.985886910	-0.070698990	-3.560045310
H 	-2.514249430	-0.440626350	-2.725397350
H 	-1.061268000	-0.008182380	-1.798077050
C 	-1.653834350	-2.665496610	-1.330433730
H 	-1.428204830	-3.734938420	-1.245582560
H 	-2.745360300	-2.556466920	-1.351084010
S 	2.323011780	0.434711050	-3.073171700
N 	-0.845137910	-1.518500550	2.990846620
H 	-0.514487190	-2.373034140	3.421941110
H 	-1.703129940	-1.099917270	3.322294830
C 	-0.851852460	3.367576450	2.012193680
C 	-1.827662880	2.464629800	1.198441320
C 	-3.276128460	2.934950480	1.467978610
C 	-1.504992320	2.605186440	-0.305031990
H 	-2.143878390	1.955588190	-0.912032150
H 	-0.991643780	4.417047570	1.723326350
H 	0.186157120	3.087354240	1.820941250
H 	-1.035400400	3.283752100	3.090641570
H 	-3.366118950	4.006794670	1.254872540
H 	-3.554987250	2.777292530	2.518468830
H 	-3.997953310	2.406324710	0.837303410
H 	-1.675825930	3.640991900	-0.621869200
H 	-0.460824910	2.363117710	-0.527330240
