35

H 	-1.633091187	-1.346635516	0.148098997
C 	0.000000000	0.000000000	0.000000000
C 	-1.342339954	-0.312841127	0.000000000
C 	-2.506430786	0.557576191	0.000000000
O 	-3.584109178	0.100123356	0.519604982
H 	0.302017465	1.043141167	-0.035356176
H 	0.873805768	-1.373754859	-2.146303163
H 	1.430705827	0.387993683	-2.304445777
H 	-0.282282931	-0.105213114	-2.840449899
C 	0.617049477	-0.329663435	-2.277088212
N 	-2.539528580	1.832882989	-0.468496193
C 	-3.729269628	2.665868307	-0.223581126
C 	-1.499615452	2.456320912	-1.289395603
H 	-4.353254223	2.199572175	0.537081786
H 	-4.310599424	2.776304177	-1.148497286
H 	-3.402460907	3.657671987	0.110149986
H 	-0.886756794	3.148445145	-0.695008622
H 	-1.983037342	3.028494538	-2.089399498
H 	-0.861195344	1.701529928	-1.741478167
C 	0.782352418	-2.238312414	0.895734724
C 	1.800045050	-3.057816801	1.379976846
C 	3.087806129	-2.535427359	1.487320341
C 	3.388415101	-1.222098079	1.135411152
C 	2.358882649	-0.417712073	0.647986799
C 	1.043987870	-0.906603858	0.513031862
H 	-0.223447185	-2.642217209	0.833512752
H 	1.605036474	-4.082696738	1.682860219
F 	4.087907072	-3.336601981	1.962766959
H 	4.402805634	-0.848925731	1.244955102
H 	2.577370659	0.610543656	0.365919097
Ti	-4.227308249	-1.359068051	1.857724030
Cl	-4.887153092	-2.950212100	3.315821921
Cl	-3.875185125	-2.838399862	0.169105781
Cl	-2.451392976	-0.728485817	3.119254778
Cl	-6.137700099	-0.174932805	1.953234116
