35

H 	1.732607770	2.179335780	-0.130835310
C 	3.493206280	1.041715590	-0.418656300
C 	2.140461460	1.177253310	-0.190287450
C 	1.081998620	0.183516670	-0.089857340
O 	-0.125638590	0.589578390	-0.213738580
H 	3.913539960	0.055231830	-0.589644900
H 	4.352252130	2.147170190	1.895624490
H 	5.258432750	0.546329700	1.642584040
H 	3.551452510	0.551830320	2.390989940
C 	4.323964340	1.066083000	1.829231340
N 	1.262211990	-1.156171270	0.089814880
C 	0.104259950	-2.064571860	-0.017072320
C 	2.530178800	-1.806124440	0.436839970
H 	-0.747238980	-1.528562480	-0.433478580
H 	-0.162316170	-2.451796690	0.975401040
H 	0.374907140	-2.907053900	-0.665364230
H 	3.046499500	-2.183810620	-0.457537950
H 	2.310675520	-2.657871740	1.089235380
H 	3.183466880	-1.122310540	0.975108490
C 	3.928961330	3.477844690	-0.988148700
C 	4.796779140	4.483832040	-1.413129350
C 	6.114093580	4.148653290	-1.726751320
C 	6.586241550	2.840767380	-1.635932350
C 	5.704788570	1.847388940	-1.208688340
C 	4.367306230	2.142122570	-0.869699200
H 	2.899779070	3.741192350	-0.762164250
H 	4.462118930	5.513259380	-1.510160220
F 	6.970021210	5.133922250	-2.142278190
H 	7.616638870	2.615240480	-1.896796500
H 	6.061285290	0.821461830	-1.130496290
Ti	-1.353352650	2.220774070	-0.555977190
Cl	-2.675646300	4.017722800	-0.901335030
Cl	-0.608495740	2.961182630	1.459542410
Cl	-0.060920840	2.621101580	-2.380374670
Cl	-3.023799710	0.711571370	-0.690061190
