33

H 	1.657731973	2.001672594	0.553375793
C 	3.289209797	0.990941943	-0.365101297
C 	2.025102601	1.052002118	0.178789631
C 	0.955163527	0.047067888	0.099504818
O 	-0.234842720	0.455890358	-0.034230741
H 	3.602693255	0.057792264	-0.830011255
H 	5.022111544	1.692106079	1.579268477
H 	5.402516837	-0.045531071	1.059797906
H 	4.041735751	0.287616910	2.280344006
C 	4.708170709	0.658032908	1.508760878
N 	1.198493558	-1.302320740	0.089585986
C 	0.086468190	-2.217010991	-0.198649129
C 	2.411406180	-1.938189888	0.604954893
H 	-0.660318879	-1.700676754	-0.801800202
H 	-0.389993593	-2.565560913	0.729125762
H 	0.478063967	-3.084974348	-0.741408998
H 	2.923220160	-2.502577701	-0.187078245
H 	2.144558797	-2.640498960	1.406721153
H 	3.090188683	-1.193286532	1.010414255
O 	7.188398838	2.892001879	-2.680264213
H 	7.379874085	1.941737269	-2.768511576
C 	5.996960198	3.053419316	-1.997642592
C 	5.544636831	4.363935452	-1.794686236
C 	4.340564139	4.568636319	-1.117509417
C 	3.589655708	3.494390395	-0.635317794
C 	4.044731077	2.176984255	-0.826439200
C 	5.254021645	1.971313100	-1.518653560
H 	6.130140962	5.195263102	-2.178170825
H 	3.973818343	5.582683691	-0.976749446
H 	5.614947982	0.954844021	-1.679332420
H 	2.640484273	3.685707557	-0.146632560
I 	-0.570221381	2.842543751	-1.212785919
I 	-0.881577329	5.311624610	-2.495964363
