64

C 	-1.832856964	-0.060131359	1.989700427
C 	-0.577719609	-0.500082490	1.825803841
C 	-0.007021454	-1.748017620	2.389970798
O 	1.041544831	-2.243213216	1.930357751
H 	-1.002218747	-0.077666228	-1.745567657
H 	-2.538598532	-0.645707828	2.586627557
H 	0.120497927	0.040907816	1.196907587
C 	-1.910749199	-2.667485880	-1.288401877
H 	-1.780761756	-3.750007739	-1.171225794
H 	-2.984155105	-2.475780144	-1.412671279
H 	-1.589797848	-2.177205063	-0.363024977
H 	1.941394048	-3.895787159	-2.269416605
H 	0.426145080	-4.380194565	-1.487643690
H 	0.541019615	-4.347828998	-3.257214503
H 	5.312932173	1.275731224	0.933546682
H 	4.618804925	-0.145540967	1.736825785
H 	5.205749513	-0.279709947	0.063971111
N 	2.494133321	-0.429993882	0.011941116
C 	1.836939944	-0.653260129	-1.188367567
N 	0.936781654	-1.706561174	-1.130273505
C 	3.308118549	0.765655620	0.238847126
H 	2.225340518	-1.006031584	0.809498134
C 	0.416689421	-2.357491299	-2.338578205
H 	0.921760155	-2.240455911	-0.264627996
H 	3.420902721	1.223696512	-0.748269725
C 	0.849890736	-3.835586969	-2.340901368
C 	4.700214284	0.380158035	0.777269748
H 	2.572253025	3.336229104	-0.322298669
H 	0.902021775	-1.846164308	-3.177625980
C 	2.605804427	1.768977246	1.153948458
C 	2.246314028	1.423745075	2.467311699
C 	1.605444231	2.344371949	3.299960882
C 	1.320883852	3.634331553	2.835333478
C 	1.675590603	3.989941993	1.530315199
C 	2.309796721	3.060679249	0.697391427
H 	2.460330123	0.424564094	2.842059240
H 	1.329437773	2.057156644	4.312667145
H 	0.823611808	4.352748351	3.483493012
H 	1.452407029	4.987323257	1.156920792
C 	-1.128095475	-2.123158821	-2.503470736
C 	-1.628660770	-2.810472328	-3.793936569
H 	-2.668831175	-2.524507551	-3.994347334
H 	-1.595143197	-3.902926780	-3.718792205
H 	-1.026245896	-2.507937191	-4.660411851
C 	-1.373985656	-0.604177687	-2.628135516
H 	-0.854118829	-0.191177344	-3.500003265
H 	-2.446459272	-0.395841803	-2.732374402
O 	2.029602612	0.023183964	-2.207683608
N 	-0.661614033	-2.352908032	3.428382120
H 	-1.425045117	-1.904503458	3.915484061
H 	-0.249354539	-3.187576168	3.827009095
C 	-3.633125048	0.778570299	0.505482444
C 	-2.433459161	1.196782658	1.398439209
C 	-1.417417511	2.007602136	0.571586192
C 	-2.950483474	2.068036777	2.576386666
H 	-2.119559888	2.386529169	3.216254753
H 	-4.129490492	1.670404719	0.103899533
H 	-4.373804096	0.205777360	1.077901117
H 	-3.296397832	0.163144979	-0.334530576
H 	-1.900216228	2.905933132	0.169812857
H 	-1.032774092	1.430664759	-0.274740896
H 	-0.569212579	2.326976553	1.182794036
H 	-3.448944791	2.964316817	2.187558225
H 	-3.673364954	1.518183978	3.192449133
