24

H 	2.340865800	0.829421850	0.187804370
C 	4.242874680	-0.145783130	0.325117990
C 	2.889038050	-0.104515070	0.289921030
C 	2.019248950	-1.278847910	0.317896680
O 	0.798328010	-1.222350950	-0.042072440
H 	4.744003070	-1.116492610	0.357101630
C 	6.546910370	0.750146060	0.308838980
C 	7.467386220	1.797794020	0.289997760
C 	6.980548970	3.102559860	0.253133590
C 	5.612195620	3.389319590	0.232200690
C 	4.705788520	2.333728240	0.250971280
C 	5.153756020	0.991775410	0.292459630
H 	6.910359170	-0.275675220	0.336611950
H 	8.539011510	1.618067360	0.302456580
F 	7.871942610	4.138120220	0.237096150
H 	5.277469730	4.422739200	0.200507370
H 	3.641725390	2.553935720	0.231862200
N 	2.478600710	-2.474478440	0.745679970
H 	1.844572820	-3.266253380	0.739733630
H 	3.391472290	-2.578282950	1.166757200
Al	-0.284941620	0.085529050	-0.834902240
F 	-0.028646930	-0.143511510	-2.480447010
F 	0.363277830	1.544511160	-0.256235880
F 	-1.814779400	-0.278538230	-0.253746910
