30

H 	1.920007704	0.935454223	-0.058213130
C 	0.000000000	0.000000000	0.000000000
C 	1.375262220	-0.000000000	0.000000000
C 	2.180191528	-1.189178241	0.000000000
O 	3.430449690	-1.130962650	-0.170174267
H 	-0.522091736	-0.943472059	0.143171699
H 	-1.238441401	0.314349074	-2.509091369
H 	-0.564925145	-1.420090989	-2.397917416
H 	0.589399175	0.003201615	-2.745197436
C 	-0.387071855	-0.350852218	-2.436677490
C 	1.570479963	-2.563299743	0.173523655
H 	0.991465282	-2.825742520	-0.722633452
H 	0.891926509	-2.599887984	1.032831153
H 	2.369633092	-3.296156170	0.300400785
C 	-2.215232437	1.029784860	0.401353118
C 	-3.054607329	2.136881865	0.529334881
C 	-2.549927173	3.430341893	0.360363584
C 	-1.194184013	3.574333343	0.062022273
C 	-0.333652913	2.495078438	-0.069376236
C 	-0.845054985	1.191858777	0.105735625
H 	-2.616111514	0.027037583	0.531185386
H 	-4.107220556	1.997657278	0.762742274
H 	-3.180077515	4.310587940	0.450841718
F 	-0.695739660	4.834172761	-0.112739601
H 	0.708799780	2.675941051	-0.312137806
Ti	4.907590573	0.327491545	-0.749963819
Cl	6.347334594	1.927473134	-1.392066596
Cl	4.415593291	1.288197857	1.233330664
Cl	6.348582845	-1.372583085	-0.747636462
Cl	3.543159190	0.601211337	-2.550963398
