30

H 	1.637066470	2.127705770	-0.754343180
C 	3.508139340	1.147830680	-0.431395130
C 	2.132494160	1.214800470	-0.444158710
C 	1.265746500	0.156672940	-0.002889730
O 	0.013893870	0.321821460	0.061003060
H 	3.982044670	0.195448390	-0.202236710
H 	4.755070920	2.345417810	1.779831520
H 	4.094406240	0.684743990	2.308568550
H 	2.933332130	2.135553440	2.135837570
C 	3.907624650	1.694726590	1.958653520
C 	1.807998500	-1.191523860	0.423753300
H 	2.373026490	-1.086067640	1.360287180
H 	2.485447510	-1.610113270	-0.329680100
H 	0.974178560	-1.876599620	0.590790360
C 	5.764698600	1.824428170	-1.195954200
C 	6.653222070	2.742900500	-1.757101710
C 	6.213123040	4.018529890	-2.126976500
C 	4.869892580	4.339841080	-1.919736840
C 	3.961098860	3.447373370	-1.367966060
C 	4.407383210	2.159294420	-0.998985170
H 	6.117044580	0.836421120	-0.905961160
H 	7.695154270	2.469345440	-1.907367780
H 	6.885090980	4.753584180	-2.561839910
F 	4.434122180	5.588250460	-2.275174720
H 	2.931160210	3.760888040	-1.225417850
Ti	-1.420108740	1.916046580	-0.158531930
Cl	-2.786816520	3.682470440	-0.404195480
Cl	-0.814816960	1.838964260	-2.335746470
Cl	-2.949504250	0.447215710	0.526674740
Cl	-0.130289830	2.933113380	1.422089110
