30

H 	1.634038396	2.075635441	-0.856198335
C 	3.506381912	1.127434431	-0.456026421
C 	2.132993259	1.179362129	-0.505557193
C 	1.270613991	0.127004598	-0.046316836
O 	0.021982884	0.297291307	0.039802863
H 	3.983788092	0.189732420	-0.180316937
H 	4.715229969	2.400069488	1.745604413
H 	3.959162182	0.800508836	2.332147974
H 	2.870478573	2.283007672	2.022640162
C 	3.833522612	1.796729840	1.922069816
C 	1.814843354	-1.218611587	0.381701897
H 	2.364653789	-1.110414192	1.326812252
H 	2.505528566	-1.631387639	-0.361771529
H 	0.982892104	-1.907949647	0.538201823
C 	5.776235062	1.816145883	-1.164714747
C 	6.671184719	2.739767914	-1.705622112
C 	6.227951200	4.006101219	-2.100889375
C 	4.875985762	4.311246021	-1.937009244
C 	3.961220388	3.415180061	-1.405181643
C 	4.410792342	2.137178241	-1.011260162
H 	6.129444792	0.834543245	-0.856880860
H 	7.719545160	2.477147213	-1.823214018
H 	6.902144397	4.746517806	-2.522025529
F 	4.437224196	5.549116620	-2.312972688
H 	2.924894860	3.719180479	-1.295795961
Ti	-1.391366514	1.919735502	-0.083922887
Cl	-2.761479614	3.695287792	-0.207632486
Cl	-0.818449894	1.959213583	-2.267654321
Cl	-2.914054821	0.425263641	0.560043003
Cl	-0.046457428	2.859045871	1.493768651
