26

H 	2.567919944	0.776957373	0.337430078
C 	4.350156415	-0.317982686	0.621530720
C 	3.018731721	-0.209716294	0.376482096
C 	2.158996712	-1.345061158	0.164531494
O 	0.928695349	-1.193665580	-0.042142176
H 	4.860928714	-1.281354279	0.678837524
O 	5.111779260	0.766340422	0.805932962
C 	6.534228240	0.530832228	1.100882694
C 	7.218343028	1.882093705	1.192794389
H 	6.952533019	-0.084478686	0.293794670
H 	6.596067348	-0.022657069	2.046703057
H 	7.133572407	2.426300003	0.246238159
H 	8.281493745	1.737028217	1.417489037
H 	6.774499328	2.488785711	1.989125367
C 	1.600940914	-3.839514077	0.001405991
C 	2.691757313	-2.775262526	0.176273293
H 	1.072766936	-3.709234304	-0.947687626
H 	0.857601002	-3.775447653	0.801950069
H 	2.049213963	-4.838840247	0.019203978
H 	3.442764311	-2.860725584	-0.622758836
H 	3.232863605	-2.931952838	1.120088162
Ti	-0.598543813	0.316654732	-0.189636742
Cl	-2.116689603	1.968117609	-0.317199986
Cl	-0.004018646	0.765735029	1.944506061
Cl	0.635086945	1.046100950	-1.935984070
Cl	-1.999346386	-1.385939298	-0.549951227
