18

H 	0.09039400	-1.80988500	-0.51555900
C 	-0.90781800	-0.00771300	-0.04943500
C 	0.18266500	-0.75219600	-0.26512300
C 	1.55928900	-0.22014000	-0.18291400
O 	2.58397600	-0.85270500	-0.38366600
H 	-0.82431600	1.04491300	0.20242600
C 	-4.89175500	-1.70930200	-0.32578700
C 	-4.11637700	-1.92450000	0.82040600
C 	-2.83108800	-1.37553700	0.90956200
C 	-2.32117600	-0.61137600	-0.14747500
C 	-3.09655300	-0.39617800	-1.29366700
C 	-4.38184300	-0.94514100	-1.38282400
H 	-4.50657500	-2.50925600	1.62927800
H 	-2.23774800	-1.54021200	1.78665900
H 	-2.70635500	0.18857800	-2.10254000
H 	-4.97518200	-0.78046600	-2.25992100
H 	-5.87529200	-2.12938400	-0.39401200
H 	1.61846800	0.81547700	0.07956700
