26

H 	1.931515826	0.931777385	-0.023404914
C 	0.000000000	0.000000000	0.000000000
C 	1.373509476	0.000000000	0.000000000
C 	2.217793240	-1.163738200	0.000000000
O 	3.434788955	-1.191474228	-0.000075734
H 	-0.503550389	-0.950831078	0.152911764
H 	-0.043084045	0.457400950	-2.745125174
H 	-1.606533392	-0.427886206	-2.254166222
H 	-0.011432675	-1.384293114	-2.434356446
C 	-0.528874667	-0.434621459	-2.368311294
Cl	1.346419897	-2.792837041	-0.015383212
C 	-2.536403361	3.430941019	0.378222683
C 	-3.034419201	2.143369670	0.607799990
C 	-2.195589509	1.037585352	0.470985445
C 	-0.839887013	1.195626523	0.113791681
C 	-0.352869349	2.499634731	-0.116516581
C 	-1.193837788	3.602958796	0.013522303
H 	-4.075114611	2.002445591	0.890688790
H 	-2.583817781	0.035851120	0.645956355
H 	0.682688978	2.650532524	-0.409852141
H 	-0.804853026	4.601679442	-0.171318248
H 	-3.189107929	4.295084882	0.478436677
B 	4.804057941	0.611932541	-0.057350708
F 	4.423584848	1.096502562	1.132649222
F 	4.262999025	1.148095143	-1.163815550
F 	5.917403598	-0.109735051	-0.154629503
