26

H 	0.220893850	-1.934469020	-0.319970640
C 	-0.896676120	-0.099512400	-0.148007900
C 	0.244129710	-0.846813140	-0.274389420
C 	1.539207900	-0.214994990	-0.309866430
O 	2.616518640	-0.830825110	-0.411583970
H 	-0.789547690	0.985920500	-0.198555810
H 	-0.451465490	-0.703013260	2.604703190
H 	-1.696342750	0.685696980	2.615182770
H 	0.093223230	1.036950670	2.238737390
C 	-0.710484600	0.318401700	2.353691410
H 	1.545870140	0.892652280	-0.232953150
C 	-2.490584070	-0.847073630	-1.870375580
C 	-2.312210890	-0.625819830	-0.333379420
C 	-3.354659760	0.417727160	0.130444750
C 	-2.546055190	-1.965420630	0.402481790
H 	-2.414212480	-1.848747970	1.483521470
H 	-3.514814210	-1.182533800	-2.075310450
H 	-1.791086370	-1.604649900	-2.239226220
H 	-2.315988390	0.082037220	-2.426110520
H 	-4.365183220	0.081779120	-0.130308830
H 	-3.185575400	1.387050110	-0.355156470
H 	-3.320715380	0.567126530	1.214073210
H 	-3.569340740	-2.313530300	0.217929790
H 	-1.861975440	-2.747261720	0.054696860
I 	4.763493230	0.779156870	-0.170992490
I 	6.859466530	2.591078720	0.162749440
