29

H 	1.499433130	2.198271800	-0.714362750
C 	3.346681600	1.112625860	-0.714887710
C 	1.973988290	1.224285870	-0.617336550
C 	1.112265590	0.153388540	-0.236744640
O 	-0.086884760	0.385798650	0.156763600
H 	3.796322530	0.123513650	-0.646545730
H 	4.616322480	2.061466720	1.616611990
H 	4.012306370	0.326118290	1.917203870
H 	2.805694550	1.754213220	1.987687940
C 	3.788495390	1.371386510	1.728788040
C 	1.555078590	-1.288529470	-0.221365670
H 	2.285971580	-1.515088840	-1.002720570
H 	0.679338090	-1.934714430	-0.327196480
H 	2.013356280	-1.506259060	0.754810370
C 	6.071856370	4.143734190	-2.017598340
C 	6.505473660	2.824017190	-1.837683970
C 	5.605726540	1.850094650	-1.406491790
C 	4.253915390	2.172999180	-1.152862830
C 	3.831443410	3.508848000	-1.336586660
C 	4.733671810	4.479926640	-1.764738470
H 	7.542219070	2.558076830	-2.032272850
H 	5.943498290	0.824782610	-1.261524160
H 	2.800761190	3.789073070	-1.136415980
H 	4.395796990	5.505026890	-1.900645240
H 	6.771689380	4.907479000	-2.350037770
Al	-0.711553460	2.011419210	0.864087620
F 	-0.569630370	3.132676870	-0.395527620
F 	0.455802490	2.290406970	2.063982300
F 	-2.265081350	1.693399190	1.398732400
