36

H 	1.983506938	0.894858535	0.387776620
C 	0.000000000	0.000000000	0.000000000
C 	1.502542681	0.000000000	0.000000000
C 	2.379475512	-1.140155926	-0.000000000
O 	3.441840154	-1.114238511	0.728870286
H 	-0.404950040	-0.816486216	-0.605268713
H 	-1.681570541	1.320903588	-0.411356928
H 	-0.325836301	1.498735210	-1.553715048
C 	-0.589856828	1.330765571	-0.502531247
H 	-0.207125722	2.176502137	0.079128951
N 	2.141223442	-2.263234210	-0.727653416
C 	2.985200412	-3.451063560	-0.520138105
C 	1.266934448	-2.291110675	-1.904778620
H 	3.298485084	-3.500623836	0.521395416
H 	3.873881131	-3.413653486	-1.164748294
H 	2.395510204	-4.338050045	-0.771879287
H 	0.360430728	-2.879415566	-1.712510577
H 	1.811860429	-2.756025266	-2.735381463
H 	0.993395949	-1.277448955	-2.197621060
O 	-1.068921182	-1.286187647	5.470401397
H 	-1.403598567	-2.196518609	5.558322098
C 	-0.853266596	-1.005487863	4.142355335
C 	-0.275533048	0.234279907	3.831671411
C 	-0.026897929	0.563062401	2.504941218
C 	-0.350609793	-0.324567621	1.459978860
C 	-0.915659826	-1.565555680	1.790921050
C 	-1.182203794	-1.903665994	3.116214632
H 	-0.006654917	0.911441297	4.637433412
H 	0.450247800	1.513416224	2.284626372
H 	-1.152066764	-2.277639482	1.002478420
H 	-1.626843850	-2.868345186	3.357621866
Ti	3.962301222	-0.900658216	2.713059747
Cl	4.359263013	-0.725869614	4.931971836
Cl	3.568743256	1.331117866	2.494933154
Cl	2.342932373	-2.477660002	3.049515116
Cl	6.009015716	-1.607644669	2.144761899
