67

C 	0.000000000	0.000000000	0.000000000
C 	-1.112294798	-0.808101403	0.000000000
C 	-1.100051170	-2.257080509	0.000000000
O 	-2.173094483	-2.904614856	0.002932064
H 	-6.768444726	-1.161425826	3.323412121
H 	0.978031402	-0.462105201	-0.114070788
H 	-2.096267414	-0.358709916	0.008231430
H 	-4.593846645	-1.547327790	-4.753839348
H 	-4.320379908	-2.835836802	-3.564005739
H 	-5.703066107	-2.452458051	2.732327492
H 	-5.788657460	-1.844788305	-3.463621084
C 	0.526326480	0.096979036	2.366308430
H 	-0.374901982	0.627904390	2.643448698
H 	-6.832728324	-1.652025947	1.622411470
H 	-2.547063917	-1.551355438	2.676662016
H 	1.444422724	0.661703087	2.253874436
H 	0.590494134	-0.960295144	2.596665725
N 	-4.172948427	-1.191282849	-1.382072663
C 	-4.609529690	-0.359574523	-0.385647437
N 	-4.418943013	-0.878889690	0.868114962
C 	-4.010699250	-0.804284445	-2.794587166
H 	-3.621857684	-1.997740548	-1.074387326
C 	-5.105123045	-0.437063093	2.091172967
H 	-3.973723017	-1.795273396	0.903457225
H 	-4.512930044	0.162865082	-2.885900295
C 	-6.162724907	-1.490445837	2.473645337
C 	-4.719794839	-1.823890456	-3.700765456
H 	-2.659696964	1.535140782	-3.021080021
H 	-5.619631301	0.488121810	1.812462737
C 	-2.531789922	-0.610647224	-3.122441495
C 	-1.668303442	-1.701392966	-3.316976663
C 	-0.308092609	-1.498488159	-3.563390674
C 	0.211271258	-0.199358593	-3.619177830
C 	-0.640939941	0.892581782	-3.433155945
C 	-2.001221930	0.685997607	-3.187334169
H 	-2.053940216	-2.716903341	-3.265254012
H 	0.347020399	-2.354637523	-3.713855566
H 	1.271008674	-0.040799656	-3.807850010
H 	-0.245186264	1.905044652	-3.459028542
C 	-4.081371737	-0.075660382	3.222643938
C 	-4.848935796	0.337885005	4.499072937
H 	-4.148916616	0.732374840	5.245728823
H 	-5.376211739	-0.507575490	4.953646210
H 	-5.583892877	1.123276021	4.280794388
C 	-3.232935074	1.125574511	2.751628691
H 	-3.866269180	1.984973547	2.505398467
H 	-2.530749809	1.428660928	3.538508240
H 	-2.657935578	0.872540976	1.858803532
C 	-3.145512144	-1.261998478	3.547544896
H 	-3.705075135	-2.141172805	3.887942323
H 	-2.449431463	-0.983383477	4.348427330
S 	-5.284315637	1.172625464	-0.664903217
C 	0.224392933	-3.005024363	-0.032090417
H 	0.031715306	-4.077882722	0.036296779
H 	0.878885374	-2.695759353	0.792293576
H 	0.752459144	-2.789618014	-0.969724451
C 	0.024067856	4.223397913	-0.743302810
C 	1.220551747	3.498035081	-0.694878164
C 	1.193193165	2.128463571	-0.431506218
C 	-0.025213772	1.453146473	-0.219141325
C 	-1.221996584	2.196086057	-0.272450104
C 	-1.194289623	3.565253883	-0.529858242
H 	2.171238394	3.999208087	-0.863822718
H 	2.124143391	1.564397303	-0.399243803
H 	-2.185485168	1.712771761	-0.144577460
H 	-2.130584628	4.116723360	-0.575305709
H 	0.040291275	5.291503773	-0.948702873
