30

H 	1.914182923	0.912341127	0.160824121
C 	0.000000000	0.000000000	0.000000000
C 	1.348209134	0.000000000	-0.000000000
C 	2.183061107	-1.209347749	-0.000000000
O 	3.211144559	-1.285052882	0.761064751
H 	-0.530438321	-0.947759869	-0.093523126
C 	-0.364203894	2.447371594	0.506562780
C 	-1.230104642	3.532104708	0.627189684
C 	-2.606640026	3.383167627	0.406006319
C 	-3.081910823	2.119145531	0.071421706
C 	-2.246711201	1.016537674	-0.051948259
C 	-0.860153300	1.172993814	0.154870153
H 	0.693677591	2.582599475	0.710256410
H 	-0.837526029	4.507020033	0.905578463
H 	-3.296898816	4.216831327	0.499291732
F 	-4.425198922	1.950041778	-0.140243522
H 	-2.670282799	0.049065054	-0.310021252
N 	1.909445896	-2.280673946	-0.776129658
C 	2.695370156	-3.516914135	-0.611916357
C 	1.005897948	-2.261286681	-1.935057045
H 	3.107293812	-3.558411007	0.395513729
H 	3.519870107	-3.546624927	-1.336228990
H 	2.034313528	-4.372013807	-0.786616454
H 	0.105288164	-2.856721986	-1.738852031
H 	1.530674905	-2.698614619	-2.792660795
H 	0.719270641	-1.238964626	-2.177175677
B 	3.610331136	-0.188987369	1.916361582
F 	2.484732313	-0.059504240	2.721070164
F 	3.919001955	0.986742852	1.229810820
F 	4.687665003	-0.774887169	2.533798039
