30

H 	2.200048635	0.668849170	0.300349884
C 	4.110544590	-0.242956686	0.098007901
C 	2.762819497	-0.244499954	0.134098888
C 	1.918826837	-1.386237915	-0.244861027
O 	0.871014145	-1.206208473	-0.960112290
H 	4.635791217	-1.167417992	-0.142507029
C 	4.480738353	2.234217832	0.422724747
C 	5.351704001	3.298481403	0.645755639
C 	6.732251845	3.086147082	0.768049484
C 	7.206060760	1.783276051	0.651373698
C 	6.365715991	0.701275810	0.424176004
C 	4.975576121	0.915923274	0.318191092
H 	3.419071277	2.428179624	0.303843480
H 	4.959741147	4.310078568	0.717271146
H 	7.426379503	3.904299443	0.938249483
F 	8.552971864	1.555039717	0.758890289
H 	6.788198073	-0.296521756	0.335143710
N 	2.203874337	-2.654130462	0.124163038
C 	1.404372832	-3.766673055	-0.419876556
C 	3.136954500	-3.019489330	1.199226643
H 	0.966450996	-3.471893807	-1.372582244
H 	0.598502327	-4.036063272	0.275330845
H 	2.062994899	-4.630523092	-0.556593503
H 	4.027563786	-3.515008734	0.792516409
H 	2.630933915	-3.717286404	1.876835071
H 	3.437665269	-2.135167073	1.759107175
B 	0.450914787	0.210733480	-1.675103429
F 	1.556494221	0.601269705	-2.421072640
F 	0.169130240	1.091565053	-0.629300203
F 	-0.646431887	-0.138236368	-2.422903494
