37

H 	1.879689809	0.948975241	0.116487682
C 	0.000000000	0.000000000	0.000000000
C 	1.366765943	0.000000000	0.000000000
C 	2.322671792	-1.102928666	-0.000000000
O 	3.500141660	-0.852847939	0.435091021
H 	-0.541950423	-0.942825224	-0.011782529
H 	-0.351741384	1.344945854	-2.462579223
H 	-1.240970610	-0.286470002	-2.567920482
H 	0.602815370	-0.195748305	-2.826882852
C 	-0.311130045	0.263176380	-2.468367548
N 	2.069621806	-2.378210092	-0.390339542
C 	3.083013641	-3.423501044	-0.158973730
C 	0.849882516	-2.836014776	-1.060320348
H 	3.870220735	-3.036875298	0.485857368
H 	3.520178994	-3.739321156	-1.115035395
H 	2.598726144	-4.287142953	0.311732632
H 	0.151086786	-3.290263025	-0.343899799
H 	1.126647081	-3.596245536	-1.798546609
H 	0.359505652	-2.014990581	-1.576727367
C 	-2.260907293	1.148815467	-0.032693376
C 	-0.827502983	1.161347719	0.546658686
C 	-0.174173837	2.540210212	0.321172408
C 	-0.920125014	0.892167501	2.082663309
H 	0.073554569	0.897116309	2.540009416
H 	-2.891905449	1.852713380	0.521889990
H 	-2.713561377	0.152768378	0.055050006
H 	-2.278410869	1.441355405	-1.086396046
H 	-0.822728947	3.323018406	0.730319749
H 	-0.025283438	2.747767593	-0.744022139
H 	0.794809975	2.621816911	0.823542448
H 	-1.532733376	1.671345307	2.551799363
H 	-1.389040947	-0.078153866	2.287437549
Ti	4.551862972	0.400802688	1.704469979
Cl	5.637367998	1.780368955	3.122526798
Cl	6.189718701	-1.139179665	1.606147040
Cl	4.391204719	1.960073041	0.064416002
Cl	2.809269124	0.088813713	3.132964406
