19

H 	0.29225500	-1.68458100	0.66140700
C 	-0.86543100	-0.17477400	-0.31936800
C 	0.27039900	-0.73282100	0.13627600
C 	1.56819200	-0.07414300	-0.05991200
O 	2.63817000	-0.51602100	0.32407000
H 	-0.77056300	0.78510200	-0.83482200
C 	-3.11717200	0.38215100	0.53029100
C 	-2.28430900	-0.68456600	-0.22665200
C 	-2.39538200	-2.03687000	0.49575000
C 	-2.83044500	-0.81907400	-1.67167700
H 	-2.26517100	-1.56442300	-2.23951900
H 	-4.16927600	0.08155900	0.57000000
H 	-3.06534500	1.35692300	0.03469300
H 	-2.75959100	0.50605800	1.55700500
H 	-3.43981100	-2.36187600	0.52816200
H 	-2.03792800	-1.97493800	1.52808800
H 	-1.82176800	-2.81575500	-0.01565500
H 	-3.87960200	-1.13131700	-1.65127300
H 	-2.77301700	0.13169600	-2.21114400
