24

H 	-0.278251308	0.271603594	-0.182469696
C 	-0.104792745	-1.868286708	-0.064142139
C 	0.343441111	-0.595918161	0.021585256
C 	1.695839394	-0.271892902	0.396877138
O 	2.203470915	0.846350141	0.504392012
H 	0.586841865	-2.681766558	0.161355857
C 	-1.363531490	-3.229584740	-1.685495578
C 	-1.492375123	-2.297197022	-0.444688819
C 	-2.427304291	-1.115281117	-0.765963640
C 	-2.062532656	-3.120190643	0.748538859
H 	-2.164985730	-2.495571007	1.642584761
H 	-2.354415188	-3.614477160	-1.952852747
H 	-0.708718013	-4.083859962	-1.477552966
H 	-0.960873957	-2.684349921	-2.546185341
H 	-3.419320672	-1.492897370	-1.036427246
H 	-2.052125908	-0.522832492	-1.607932860
H 	-2.544553220	-0.448869136	0.095886655
H 	-3.052926568	-3.505826233	0.480535278
H 	-1.417027459	-3.972336128	0.991315414
F 	2.517244454	-1.314551149	0.664023490
Al	1.582717299	2.650564878	0.271514283
F 	-0.049494307	2.410310781	-0.089011626
F 	2.514741072	3.163214917	-1.017463362
F 	1.882438375	3.311927279	1.775801789
