31

H 	2.371978735	0.426156312	1.008298934
C 	4.062868757	-0.159542426	-0.144969961
C 	2.828978054	-0.333066182	0.381469334
C 	1.907471007	-1.408808698	0.015032076
O 	0.651361836	-1.177550320	-0.118953793
H 	4.443733683	-0.901327852	-0.847484364
O 	7.589232580	4.169740103	0.715210412
H 	8.420538335	4.048554974	0.222176448
C 	6.757514800	3.100896819	0.480152485
C 	5.497550019	3.118916096	1.104330851
C 	4.613293344	2.069188491	0.906458991
C 	4.954435588	0.966928172	0.086654199
C 	6.220931551	0.976802890	-0.535245505
C 	7.117409178	2.025547444	-0.344271805
H 	5.231728576	3.966666145	1.730249325
H 	3.638222014	2.109185893	1.383972578
H 	6.503956769	0.145872034	-1.178950298
H 	8.090689547	2.013090721	-0.833550690
N 	2.318742168	-2.680008365	-0.205759423
C 	1.363775967	-3.672528484	-0.728836082
C 	3.607474106	-3.225806822	0.240003058
H 	0.573574463	-3.165644758	-1.281143648
H 	0.912591377	-4.244113679	0.093104750
H 	1.905111541	-4.359806986	-1.387395818
H 	4.265881624	-3.432152966	-0.613651486
H 	3.422019252	-4.168239388	0.768930993
H 	4.100827898	-2.529343865	0.916881275
B 	-0.034963635	0.301788410	-0.129846611
F 	0.642371747	1.032795143	-1.100336295
F 	0.144518332	0.820342640	1.155485068
F 	-1.347671984	0.031626434	-0.440157726
