26

H 	0.916374970	-1.258484780	0.753692840
C 	-0.759654180	0.170993920	0.981141630
C 	0.620498690	-0.217463590	0.610158460
C 	1.662902810	0.569390330	0.040614970
O 	2.716137290	0.167616890	-0.434963500
H 	-0.850713260	1.260765040	0.907328050
H 	-2.032066390	0.054224870	2.762999470
H 	-0.308864720	0.255621190	3.116500860
C 	-1.025335640	-0.242701180	2.454406920
H 	-0.922627860	-1.324114560	2.596083760
I 	1.329245900	2.802161750	0.053131180
C 	-1.481711960	0.126310260	-1.464308120
C 	-1.824991930	-0.417369130	-0.057789710
C 	-3.230963900	0.082023750	0.342286110
C 	-1.808863720	-1.960250130	-0.084749650
H 	-2.042784280	-2.388719420	0.896689700
H 	-2.245305060	-0.189137620	-2.185517770
H 	-0.515208010	-0.251276500	-1.815927880
H 	-1.440816330	1.222011890	-1.468109340
H 	-3.954768890	-0.204055010	-0.431196330
H 	-3.254419220	1.175162870	0.436933210
H 	-3.572166110	-0.354156900	1.287102390
H 	-2.565016860	-2.323972520	-0.791395430
H 	-0.839869640	-2.351135290	-0.414223380
I 	2.232159990	-2.268030250	-1.879657270
I 	1.484126210	-4.498529280	-3.320962730
