26

H 	0.921367906	-1.247449534	0.721160135
C 	-0.759957398	0.168249559	0.981407881
C 	0.618641493	-0.206098084	0.596901998
C 	1.647300671	0.594353967	0.023361440
O 	2.679201430	0.206278254	-0.504540141
H 	-0.859641206	1.257718637	0.919797216
H 	-2.017138760	0.031085077	2.771307891
H 	-0.291259026	0.225399592	3.112035727
C 	-1.013968979	-0.263266154	2.449910972
H 	-0.911411976	-1.346292601	2.577207508
I 	1.345028204	2.826768278	0.156234612
C 	-1.478899433	0.124645386	-1.465704289
C 	-1.824905501	-0.416538438	-0.059933741
C 	-3.227582047	0.090710306	0.336263695
C 	-1.816449675	-1.959355308	-0.087300407
H 	-2.060832867	-2.387278335	0.891293906
H 	-2.246325827	-0.183437378	-2.185722975
H 	-0.517108558	-0.261216575	-1.820607751
H 	-1.429317814	1.219987766	-1.469034790
H 	-3.954290555	-0.206461722	-0.429941322
H 	-3.247779924	1.185143511	0.412163083
H 	-3.566957074	-0.328024971	1.289273944
H 	-2.568505420	-2.318213619	-0.800382983
H 	-0.847256479	-2.355307029	-0.409344603
I 	2.212990281	-2.255191617	-1.883832832
I 	1.500356434	-4.559322370	-3.231705734
