68

C 	0.535350920	-0.304442960	1.127484410
C 	1.609046640	-1.342063200	1.005471870
C 	2.929855760	-1.217360490	1.570571140
O 	3.810408740	-2.092900930	1.517677440
H 	4.468153640	-4.451770320	6.610837550
H 	1.008406270	0.675745340	1.254443790
H 	1.385376490	-2.299747140	0.540212090
H 	3.294251050	-6.313821020	-2.131147550
H 	4.035258430	-4.790301710	-1.591779420
H 	4.840665490	-3.255829660	5.355213970
H 	4.683901840	-6.332831900	-1.015166040
C 	-0.387112790	-0.259432990	-0.110877280
H 	-0.871300430	-1.225614130	-0.280030740
H 	5.455231740	-4.911047320	5.208584770
H 	2.301348750	-2.220647990	3.982389310
H 	-1.165187150	0.499459930	0.030306450
H 	0.189839870	-0.007141310	-1.008795600
N 	3.470648400	-5.090965790	1.058226870
C 	3.255071900	-5.516096850	2.369640990
N 	3.614344540	-4.575655430	3.314575730
C 	2.821143310	-5.790653080	-0.064777770
H 	3.602998540	-4.086196140	0.934647220
C 	3.345963970	-4.740543270	4.745303430
H 	3.876989210	-3.653070160	2.977848310
H 	2.673915820	-6.817630690	0.286106720
C 	4.597963650	-4.311345620	5.533118310
C 	3.761213650	-5.805994060	-1.278770210
H 	0.589724530	-6.138278780	1.406906220
H 	3.189965640	-5.816105570	4.885436720
C 	1.435159030	-5.188202560	-0.332290870
C 	1.171409690	-4.324472170	-1.406916530
C 	-0.099777200	-3.760928480	-1.580877230
C 	-1.128384380	-4.052666890	-0.680048710
C 	-0.875469380	-4.912070690	0.398159050
C 	0.391815850	-5.474189770	0.568744770
H 	1.955552860	-4.088979350	-2.121992160
H 	-0.284130230	-3.095919050	-2.422628990
H 	-2.118630240	-3.622675720	-0.819429200
H 	-1.670470830	-5.151485080	1.102244830
C 	2.013212330	-4.026729150	5.192858650
C 	1.722927180	-4.367132660	6.673305790
H 	0.741810440	-3.971515340	6.965425960
H 	2.468217150	-3.934616740	7.350622650
H 	1.707047270	-5.453632500	6.830416970
C 	0.841165340	-4.555203500	4.333342500
H 	0.778760300	-5.647939140	4.381202170
H 	-0.103618460	-4.129293150	4.688715040
H 	0.956042260	-4.272125340	3.282318540
C 	2.101201970	-2.492762530	5.023991420
H 	2.884759800	-2.054711560	5.654098930
H 	1.150118780	-2.024095590	5.299442410
O 	2.817593250	-6.640836890	2.654228810
O 	3.142248750	-0.011200660	2.195212250
C 	4.448043270	0.144452720	2.817424730
H 	5.242551790	0.025827200	2.074109360
H 	4.579335830	-0.599565960	3.610134870
H 	4.447681870	1.153784630	3.232197540
C 	-1.666414010	-1.099794070	4.798818370
C 	-0.864745610	0.042657680	4.689785560
C 	-0.150998670	0.289007160	3.512637210
C 	-0.240192290	-0.594158930	2.426023470
C 	-1.031936580	-1.748431990	2.549304390
C 	-1.745461260	-1.994187770	3.724834090
H 	-0.794000780	0.741234090	5.521387270
H 	0.478226100	1.173296650	3.432539570
H 	-1.086318960	-2.460413440	1.730079210
H 	-2.355959240	-2.891129460	3.806163600
H 	-2.218571320	-1.295065520	5.715837590
