27

H 	2.221641714	0.115763894	0.089123320
C 	0.000000000	0.000000000	0.000000000
C 	1.380496069	-0.566230102	0.000000000
C 	1.643409436	-1.953121447	0.000000000
O 	2.794193004	-2.476423769	0.062103163
H 	-0.704567821	-0.757149901	-0.368542122
H 	-1.149050564	1.676352633	-0.777412228
H 	0.081768820	1.055769862	-1.905862021
C 	-0.132369200	1.276146105	-0.854266951
H 	0.567109538	2.050607116	-0.522050730
H 	0.784970045	-2.641537067	-0.066998857
C 	-0.847527236	0.569429879	4.228234246
C 	0.105153742	1.374458734	3.591953787
C 	0.380278784	1.195866365	2.235816031
C 	-0.305883075	0.217025294	1.493066641
C 	-1.243734856	-0.601548462	2.144407927
C 	-1.522766352	-0.418225506	3.500313998
H 	0.639415086	2.136140347	4.154995901
H 	1.130316012	1.819087086	1.755812252
H 	-1.766747863	-1.372566770	1.581747051
H 	-2.265124944	-1.045152979	3.989200026
H 	-1.058012197	0.706195204	5.286361721
Ti	4.851493214	-1.720383581	0.224488150
Cl	6.915167605	-0.860197128	0.387318011
Cl	5.421670348	-3.871465071	0.217152092
Cl	4.361577269	-0.731423707	-1.747090157
Cl	4.087795098	-0.821831480	2.151278274
