27

H 	  2.221642	  0.115764	  0.089123
C 	  0.000000	  0.000000	  0.000000
C 	  1.380496	 -0.566230	  0.000000
C 	  1.643409	 -1.953121	 -0.000000
O 	  2.794193	 -2.476424	  0.062103
H 	 -0.704568	 -0.757150	 -0.368542
H 	 -1.149051	  1.676353	 -0.777412
H 	  0.081769	  1.055770	 -1.905862
C 	 -0.132369	  1.276146	 -0.854267
H 	  0.567110	  2.050607	 -0.522051
H 	  0.784970	 -2.641537	 -0.066999
C 	 -0.847527	  0.569430	  4.228234
C 	  0.105154	  1.374459	  3.591954
C 	  0.380279	  1.195866	  2.235816
C 	 -0.305883	  0.217025	  1.493067
C 	 -1.243735	 -0.601548	  2.144408
C 	 -1.522766	 -0.418226	  3.500314
H 	  0.639415	  2.136140	  4.154996
H 	  1.130316	  1.819087	  1.755812
H 	 -1.766748	 -1.372567	  1.581747
H 	 -2.265125	 -1.045153	  3.989200
H 	 -1.058012	  0.706195	  5.286362
Ti	  4.851493	 -1.720384	  0.224488
Cl	  6.915168	 -0.860197	  0.387318
Cl	  5.421670	 -3.871465	  0.217152
Cl	  4.361577	 -0.731424	 -1.747090
Cl	  4.087795	 -0.821831	  2.151278
