28

H 	1.516520220	1.885215980	-1.023400710
C 	3.410860370	1.161189730	-0.318752180
C 	2.054745610	1.082469720	-0.533028110
C 	1.203290130	0.042005070	0.006285130
O 	-0.055016440	0.190788490	0.189013040
H 	3.926186330	0.322027430	0.146701300
H 	3.718319900	3.128427450	1.553820230
H 	4.276107930	1.514195180	2.290704530
H 	2.454570150	1.921877370	2.185963890
C 	3.476099500	2.125782290	1.885262160
N 	1.723738700	-1.159214710	0.368108280
H 	1.082900390	-1.864482210	0.716677540
H 	2.633614970	-1.455155610	0.040893750
C 	5.698481230	1.963233280	-0.856943490
C 	6.579557840	2.873329240	-1.445355830
C 	6.092371310	3.990730290	-2.132635960
C 	4.709261670	4.163431310	-2.208722970
C 	3.808394130	3.274045530	-1.638977830
C 	4.303915680	2.147581440	-0.949481560
H 	6.088782580	1.101505380	-0.318568230
H 	7.653210070	2.716571190	-1.368429590
H 	6.757418560	4.715208500	-2.594943600
F 	4.219509570	5.258507640	-2.872197180
H 	2.744169460	3.470608300	-1.727072460
B 	-0.803222640	1.652785260	0.177270450
F 	-0.043613520	2.450200180	1.040925450
F 	-2.064914280	1.364158510	0.634471910
F 	-0.757109930	2.103840410	-1.141226060
