28

H 	1.532926795	1.831249230	-1.061981159
C 	3.430345703	1.166790311	-0.310984607
C 	2.080959201	1.050986908	-0.546622203
C 	1.246756926	0.011678701	0.017897214
O 	-0.004743795	0.159492293	0.237487993
H 	3.956846878	0.351233500	0.181841478
H 	4.293075310	2.739561523	1.795765015
H 	3.373462276	1.261652992	2.458491002
H 	2.424159481	2.685719190	1.736184379
C 	3.370773272	2.175976079	1.873860111
N 	1.781072315	-1.187124272	0.362949802
H 	1.154543577	-1.894247739	0.731453241
H 	2.678237571	-1.479046008	0.000577222
C 	5.704480362	1.966750658	-0.898894123
C 	6.574807962	2.875958722	-1.502557449
C 	6.074904280	4.004487302	-2.159852844
C 	4.692294627	4.185313818	-2.192183419
C 	3.801072838	3.298210863	-1.605893132
C 	4.309110938	2.160182141	-0.948090131
H 	6.103718915	1.096112732	-0.383014723
H 	7.648537625	2.710467367	-1.460636857
H 	6.727825035	4.732482109	-2.632811024
F 	4.193693553	5.289301544	-2.826557086
H 	2.736737581	3.507050776	-1.654992939
B 	-0.754813901	1.619200972	0.223973748
F 	0.008969434	2.428483645	1.070449597
F 	-2.008438347	1.335031826	0.697895848
F 	-0.723166919	2.057905453	-1.097393056
