70

C 	-2.360799800	0.829607190	1.370300660
C 	-1.071879750	0.106947030	1.165403710
C 	-0.635347200	-1.050985090	1.891350710
O 	0.430970410	-1.666503970	1.673292290
H 	0.813508750	-4.283509310	-3.351853600
H 	-2.758477280	0.549856830	2.353685870
H 	-0.395061060	0.428254150	0.378010790
H 	5.142100890	0.818236700	1.948945350
H 	3.715123250	-0.077508710	2.516203740
H 	0.604140900	-4.250548610	-1.588842350
H 	4.791440400	-0.801064900	1.303965490
C 	-3.389973310	0.333971180	0.307271100
H 	-3.032365300	0.515715080	-0.710726090
H 	2.194735770	-3.918980500	-2.300824870
H 	-1.362694340	-1.989581900	-0.696087460
H 	-4.351391620	0.840987930	0.440044070
H 	-3.553930200	-0.742550860	0.420310910
N 	2.479090360	-0.208537820	0.079521780
C 	2.277525400	-0.670595110	-1.190537380
N 	1.302250250	-1.623673480	-1.271506340
C 	3.517575020	0.746517300	0.494018440
H 	1.891451090	-0.609793320	0.815238610
C 	0.818602870	-2.263537080	-2.500857470
H 	0.891718140	-1.927531120	-0.388414590
H 	4.163170040	0.862400340	-0.385727760
C 	1.117298450	-3.772420870	-2.432596620
C 	4.340282550	0.138352220	1.640028400
H 	2.241079250	2.349318100	-1.247768050
H 	1.418394010	-1.826891880	-3.306303940
C 	2.899412450	2.116836110	0.791830930
C 	2.942354520	2.719527220	2.057265950
C 	2.382413520	3.987869130	2.266454270
C 	1.773960640	4.671057400	1.211265790
C 	1.719725630	4.074194060	-0.055335900
C 	2.273433740	2.809519010	-0.261855590
H 	3.418602180	2.209921810	2.890704040
H 	2.424276940	4.437620520	3.256677400
H 	1.342799250	5.657427600	1.372060320
H 	1.247749220	4.598007470	-0.884474920
C 	-0.680382300	-1.888512390	-2.784184960
C 	-1.111196650	-2.492319220	-4.141456440
H 	-2.113686110	-2.135668080	-4.409962870
H 	-1.147541520	-3.587008300	-4.110679370
H 	-0.422397420	-2.193557440	-4.942100210
C 	-0.796957800	-0.347899660	-2.874320860
H 	-0.136822350	0.050070850	-3.653247320
H 	-1.828364980	-0.057904150	-3.111557370
H 	-0.518025220	0.129630170	-1.929981490
C 	-1.619150030	-2.411988440	-1.674218190
H 	-1.586404400	-3.505017590	-1.596486650
H 	-2.655482040	-2.124507370	-1.889676100
S 	3.145461430	-0.102083560	-2.539881110
O 	-1.508929580	-1.455500090	2.871958680
C 	-1.099835190	-2.631014950	3.625279910
H 	-0.148859050	-2.444897420	4.135051300
H 	-0.986991100	-3.491374950	2.957436150
H 	-1.901662600	-2.800426930	4.346115890
C 	-1.087867860	2.734899050	2.440625160
C 	-2.168945400	2.395333620	1.387583250
C 	-3.496441650	3.065919110	1.809970440
C 	-1.736910140	2.939674850	0.008669130
H 	-2.502089570	2.760777180	-0.754980730
H 	-0.973420370	3.820172960	2.540702230
H 	-0.110276530	2.327603120	2.160025880
H 	-1.360017280	2.327469440	3.423406120
H 	-3.349226050	4.147421410	1.923414210
H 	-3.849436310	2.671860300	2.771954790
H 	-4.288738110	2.919133990	1.067478880
H 	-1.574792530	4.022498840	0.071857370
H 	-0.795604320	2.496520250	-0.332342480
