26

H 	1.516789990	1.909673030	-0.664598860
C 	3.453679750	1.060561430	-0.314209790
C 	2.078956630	1.050426850	-0.310908760
C 	1.225440680	-0.039664890	0.163397840
O 	-0.022689660	-0.021533470	0.019750390
H 	3.983775660	0.125132170	-0.136546850
H 	3.753869700	2.637773380	1.851854380
H 	5.033322990	1.295468220	1.940446530
H 	3.288072260	0.966138800	2.509538890
C 	3.987200960	1.584485600	1.955253640
N 	1.808637960	-1.129657370	0.763321860
H 	1.188073520	-1.828865040	1.155027030
H 	2.767863820	-1.111380700	1.082755910
C 	5.646121570	1.855462290	-1.182265390
C 	6.473834270	2.816045400	-1.768212440
C 	5.923851490	4.052868060	-2.096827350
C 	4.582519150	4.353606990	-1.857998880
C 	3.770789420	3.382283810	-1.271926250
C 	4.284069180	2.114289680	-0.927515510
H 	6.064605030	0.885623190	-0.917667790
H 	7.523246030	2.617375570	-1.968410950
F 	6.726834080	5.007118150	-2.666168480
H 	4.191151140	5.332085970	-2.123492390
H 	2.728530500	3.621041310	-1.077847440
I 	-1.437208520	2.154926390	-0.673674620
I 	-2.967691970	4.415091990	-1.260994310
