36
TSRC=13_1 radical enant=R R1=34_3 R2=1_16 Rc1=23_32 Rc2=25_35 Rch=8_36 Rch2=21_33
C      -2.27415148       1.06630485       2.42246686
C      -0.91508484       0.79652944       1.87978598
C      -0.52678880      -0.42573301       1.32043625
O       0.61892160      -0.69012198       0.84039054
H       0.58169412      -5.01534526      -2.27218002
H      -2.88647384       0.15647864       2.38739370
H      -0.18244670       1.60165900       1.89930858
C       4.86979393      -0.38396077      -1.73892904
H       5.30330664       1.47232042       2.56535080
H       3.97043607       0.30148956       2.73724312
H       0.16447824      -3.99755827      -0.88344622
H       5.34000343      -0.05717995       1.67229070
C      -3.41517281       2.84155595       1.30697467
H      -2.83704785       3.76937129       1.34899475
H       1.83209681      -4.53237060      -1.12067637
Xx      -2.18273918       1.33369672       3.46484173
H      -4.38703257       3.02294760       1.77766863
H      -3.58264815       2.59322754       0.25452321
N       3.18733800       0.38181549       0.11445987
C       3.00456518      -1.34877843      -1.68253370
C       4.18915031      -1.49467925      -2.57729396
N       1.81745298      -1.93697498      -1.55628939
C       3.98000993       1.38957467       0.84367229
H       2.26446883       0.15272754       0.50468768
C       1.25843697      -2.94806666      -2.46764917
H       1.25777584      -1.68672344      -0.73635626
H       4.74659402       1.74813246       0.14795397
C       0.92947833      -4.19719782      -1.63909146
C       4.68741550       0.73936707       2.03649239
C       3.62393040      -0.32796301      -0.92437254
H       2.06212852      -3.19742244      -3.16684307
Xx       3.38883620       2.15264449       1.06353149
Xx       4.41262935      -2.06074588      -3.35814329
Xx      -1.21866035      -1.13332665       1.29351044
Xx       0.51342872      -2.58177814      -3.00699638
Xx       5.73628123       0.09474938      -1.72725171