54
TSRC radical enant=S
C       0.63194192      -0.12276470       2.09042539 R2 TSRC
C       1.42856617      -1.18219913       1.70195759
C       2.82134314      -1.02072191       1.34497221 R1
O       3.59627157      -1.94316249       1.07096078
H       5.25015612      -4.97646560       6.11196398
H       1.13136490       0.83414970       2.24093178
H       1.03871211      -2.19545693       1.66810675
Xx       3.15351324      -0.08811108       1.34521449 R1
H       3.67420672      -6.61718501      -1.93163601
H       4.30320299      -5.07381267      -1.33426192
H       5.20359067      -3.66378791       4.92765106
H       4.84419914      -6.58258987      -0.59263573
C      -0.15191214       0.82627347       0.03723193 TSRC
H      -0.68558586      -0.04360491      -0.32691046
H       5.55707195      -5.31428676       4.40771569
H       2.21007099      -2.42852161       4.60215440
H      -0.73935081       1.63582134       0.45569488
H       0.78719195       1.07858187      -0.44231002
N       3.25575618      -5.29262890       1.18797885 
C       3.04113583      -5.75625256       2.47861493 Rch
Xx       2.83430212      -6.69864352       2.70046868 Rch
N       3.15116095      -4.74183627       3.42587402
C       2.83607074      -6.02737148      -0.00738210
H       3.35242090      -4.29153133       1.06897195
C       3.45864100      -4.99948753       4.83488709
H       3.51179002      -3.86622502       3.07193277
H       2.64131877      -7.04502013       0.33731000
C       4.95016396      -4.71666258       5.09420363
C       3.98055845      -6.07496063      -1.03135299
H       0.32499727      -7.02920071       0.29510453
H       3.28789873      -6.07067751       4.97220172
C       1.52550838      -5.46579739      -0.57108223
C       1.47991979      -4.28742576      -1.33085240
C       0.26833438      -3.77844234      -1.79753810
C      -0.92811035      -4.43763791      -1.51508247
C      -0.89867184      -5.61092199      -0.76161472
C       0.31566051      -6.11659851      -0.29646196
H       2.39493906      -3.74964219      -1.56425628
H       0.26044818      -2.86487155      -2.38965084
H      -1.87292779      -4.04494241      -1.88518169
H      -1.82363167      -6.13864186      -0.53789912
C       2.45303782      -4.25698545       5.79605706
C       2.79071487      -4.59352071       7.26388860
H       2.00666390      -4.21283082       7.92698979
H       3.73293120      -4.14271035       7.58746001
H       2.85986784      -5.67525226       7.42342152
C       1.02397665      -4.75723722       5.49898673
H       0.94225875      -5.83813479       5.65196279
H       0.30251832      -4.26749444       6.16189925
H       0.73346111      -4.54635969       4.46712812
C       2.49302016      -2.72482219       5.61546378
H       3.48093578      -2.30577089       5.83120601
H       1.78384855      -2.24615712       6.29980822
Xx      -0.25580797      -0.19746313       2.52218954 R2