8

H 	0.074712000	-1.828044630	-0.502598230
C 	-0.876097150	0.013724380	-0.048801910
C 	0.187043550	-0.770725500	-0.262284630
C 	1.605358410	-0.354203640	-0.217060000
H 	-0.768070130	1.068024470	0.189811680
O 	2.548095670	-1.062887290	-0.427723630
Cl	1.885154960	1.433172190	0.207482080
H 	-1.882499250	-0.394370270	-0.111636940
