8

H 	0.075237828	-1.828145255	-0.506163348
C 	-0.874330135	0.013064308	-0.047525810
C 	0.187062848	-0.771606384	-0.264216852
C 	1.603024950	-0.354431508	-0.217051113
H 	-0.762618938	1.066228393	0.193006917
O 	2.546456848	-1.062059628	-0.422472866
Cl	1.880163370	1.433609246	0.203093668
H 	-1.881298710	-0.391969461	-0.111482175
