30

H 	1.915793238	0.914290398	0.174462153
C 	0.000000000	0.000000000	0.000000000
C 	1.351730484	-0.000000000	0.000000000
C 	2.189135832	-1.213345424	0.000000000
O 	3.150093022	-1.303175025	0.826951592
H 	-0.494740631	-0.969459538	-0.092890420
O 	-2.838501012	-0.197497781	0.677359660
H 	-2.157753954	-0.872775745	0.838390112
C 	-2.246119224	1.020172262	0.413760582
C 	-3.092554469	2.135540854	0.457311142
C 	-2.577297292	3.409700125	0.237002853
C 	-1.208740303	3.585785714	-0.026852620
C 	-0.373152690	2.479151583	-0.084790027
C 	-0.865003412	1.167042350	0.117516903
H 	-4.144116369	1.980125526	0.683883856
H 	-3.240431045	4.270732344	0.279238136
H 	0.681743439	2.617339390	-0.305688808
H 	-0.805053575	4.581192554	-0.191543831
N 	1.940603814	-2.252367198	-0.837294851
C 	2.707346483	-3.499836899	-0.686148933
C 	1.112091791	-2.166803540	-2.048296196
H 	3.082897604	-3.574260226	0.333971931
H 	3.556236598	-3.518562576	-1.382713594
H 	2.047130365	-4.345152442	-0.908116674
H 	0.219567551	-2.799058553	-1.956459745
H 	1.699530928	-2.521164431	-2.904464709
H 	0.808376864	-1.136991097	-2.229494761
Zn	3.545957776	-0.004703265	2.381782789
Cl	3.402636160	-1.137708352	4.206376822
Cl	3.914575514	1.972612501	1.560409772
