30

H 	2.330509705	0.459595066	0.932862668
C 	4.035752745	-0.162549353	-0.181457843
C 	2.791405094	-0.315755706	0.323816376
C 	1.858118422	-1.390445642	-0.060204933
O 	0.658023551	-1.093197510	-0.354777267
H 	4.395515571	-0.943086479	-0.855684230
O 	6.373765360	0.391795646	-1.849183274
H 	5.597621117	-0.137432020	-2.099913972
C 	6.088156290	1.155333506	-0.736277894
C 	7.000660301	2.177140827	-0.443630324
C 	6.777724298	3.020095113	0.641374358
C 	5.638278720	2.854431654	1.446230539
C 	4.742209013	1.832578719	1.165022149
C 	4.945124087	0.945906359	0.080073549
H 	7.864740972	2.301984986	-1.090971098
H 	7.487928329	3.814988618	0.857386456
H 	3.870671019	1.696729911	1.799580745
H 	5.460330104	3.517133888	2.288893572
N 	2.255083236	-2.685976765	-0.140299402
C 	1.326814567	-3.692718565	-0.680399663
C 	3.473612233	-3.223997803	0.480987983
H 	0.596798343	-3.204858589	-1.325607388
H 	0.798462116	-4.207277221	0.133381930
H 	1.902889427	-4.428973748	-1.251170571
H 	4.176906665	-3.580223063	-0.282726858
H 	3.199583554	-4.072339782	1.120444842
H 	3.957531188	-2.462891159	1.091011316
Zn	-0.103145543	0.810504574	-0.593058306
Cl	-0.792404307	0.968057401	-2.626155563
Cl	0.123589124	1.889937505	1.278766005
