29

H 	  1.989365	  0.961081	 -0.001043
C 	  0.000000	  0.000000	  0.000000
C 	  1.477552	  0.000000	  0.000000
C 	  2.376820	 -1.105306	  0.000000
O 	  3.597807	 -1.063680	  0.073157
H 	 -0.356176	 -1.028338	 -0.117054
H 	 -1.588674	  0.832672	 -1.256675
H 	 -0.120763	  0.396979	 -2.145358
C 	 -0.495845	  0.833594	 -1.213920
H 	 -0.148168	  1.870445	 -1.162588
Br	  1.532808	 -2.928041	 -0.150233
C 	 -0.032968	 -0.432336	  2.510570
C 	 -0.575321	  0.501883	  1.405063
C 	 -2.113960	  0.393971	  1.372977
C 	 -0.159987	  1.955981	  1.710067
H 	 -0.525506	  2.654306	  0.949248
H 	 -0.469521	 -0.161445	  3.479089
H 	  1.056345	 -0.356831	  2.601326
H 	 -0.283648	 -1.479360	  2.304730
H 	 -2.517323	  0.616225	  2.368585
H 	 -2.435818	 -0.618457	  1.098688
H 	 -2.565414	  1.102382	  0.670709
H 	 -0.586966	  2.264747	  2.671887
H 	  0.927541	  2.062142	  1.786283
Sn	  5.320194	  0.952631	  0.698612
Cl	  4.398083	  1.749944	 -1.324527
Cl	  6.699134	 -0.934759	  0.566001
Cl	  6.837359	  2.680056	  1.259114
Cl	  3.805625	  1.036131	  2.512357
