29

H 	1.641791200	2.215280690	0.537233690
C 	3.616325580	1.253410480	0.253462860
C 	2.139799770	1.262267440	0.360802240
C 	1.229328920	0.168643800	0.266818670
O 	0.006178700	0.212890790	0.289584600
H 	3.961695570	0.216391880	0.189369470
H 	5.309036510	1.874914690	1.494554340
H 	3.905749560	1.317073250	2.419686370
C 	4.215921860	1.889443010	1.538792290
H 	3.884468850	2.924657240	1.673217970
Br	2.067120560	-1.653108220	0.088446300
C 	3.473603010	1.194000820	-2.289094320
C 	4.101955520	1.956088450	-1.099174060
C 	5.639111020	1.844612550	-1.191792470
C 	3.684130170	3.440676670	-1.155629450
H 	4.110364890	4.016717620	-0.326404620
H 	3.847013950	1.600668010	-3.236684620
H 	2.381375880	1.285158810	-2.292236860
H 	3.724403470	0.127054050	-2.253627850
H 	5.973651150	2.210481890	-2.171001380
H 	5.971004870	0.803129110	-1.091951900
H 	6.146133620	2.443999990	-0.427872370
H 	4.047493090	3.888923600	-2.088675330
H 	2.594812880	3.559057550	-1.138530960
Sn	-1.797647000	2.239521090	0.050446870
Cl	-0.728786920	2.796918210	2.083645000
Cl	-3.130166840	0.312050100	0.044798290
Cl	-3.387000230	3.979893100	-0.166826950
Cl	-0.421424700	2.582780770	-1.842708860
