28

H 	 -1.663784	 -1.366406	 -0.010574
C 	  0.000000	  0.000000	  0.000000
C 	 -1.325059	 -0.334513	  0.000000
C 	 -2.375424	  0.629127	  0.000000
O 	 -3.598343	  0.428196	 -0.057132
H 	  0.268408	  1.052313	  0.079403
H 	  0.208265	 -0.418350	 -2.907519
H 	  1.001230	  1.236353	 -2.534103
H 	 -0.858803	  1.081147	 -2.611662
C 	  0.117049	  0.612142	 -2.586732
F 	 -2.003117	  1.934570	  0.062171
C 	  1.313017	 -1.037656	  1.770206
C 	  1.125596	 -0.985038	  0.215907
C 	  2.440387	 -0.471484	 -0.416182
C 	  0.797993	 -2.399564	 -0.307091
H 	  0.589715	 -2.384954	 -1.382709
H 	  2.145528	 -1.711628	  2.003635
H 	  0.408548	 -1.411729	  2.260075
H 	  1.547997	 -0.047997	  2.178519
H 	  3.276353	 -1.104084	 -0.097865
H 	  2.656210	  0.557404	 -0.103516
H 	  2.394438	 -0.497765	 -1.508876
H 	  1.653863	 -3.061500	 -0.135654
H 	 -0.065980	 -2.837664	  0.202820
Al	 -4.544547	 -1.184455	 -0.455289
F 	 -6.099186	 -0.879026	  0.067895
F 	 -3.670228	 -2.329215	  0.425307
F 	 -4.277909	 -1.290950	 -2.109503
