34

H 	1.905377404	0.936789354	-0.043968869
C 	0.000000000	0.000000000	0.000000000
C 	1.361125617	0.000000000	0.000000000
C 	2.188876184	-1.181953782	0.000000000
O 	3.440302606	-1.080566149	-0.108356377
H 	-0.525785765	-0.951776765	0.036807838
H 	0.311072764	-0.169644589	-3.055534855
H 	-1.557633965	-0.330199049	-3.129683374
H 	-0.494127694	-1.849993617	-2.845155623
C 	-0.581873727	-0.778606254	-2.985589645
C 	2.351295047	-3.399754197	1.216078456
C 	1.638631922	-2.591513242	0.110667292
H 	2.171190456	-2.953429969	2.200867673
H 	3.430239427	-3.419358789	1.039857625
H 	1.976304815	-4.428488439	1.230491611
H 	0.558388415	-2.584437353	0.277760686
H 	1.815262105	-3.068670088	-0.864519350
O 	-4.503687990	1.917394369	-0.070827216
H 	-4.732968594	0.972374758	-0.021741407
C 	-3.132680200	2.059658049	-0.077521013
C 	-2.624069950	3.366129528	-0.132665421
C 	-1.240574782	3.567697498	-0.143622710
C 	-0.357409811	2.490805705	-0.099346168
C 	-0.859376124	1.172135596	-0.043790023
C 	-2.257937293	0.972633930	-0.034784195
H 	-3.317306997	4.202445827	-0.167365098
H 	-0.851469458	4.582007114	-0.187734439
H 	-2.652300788	-0.042732007	-0.001006367
H 	0.712481864	2.671829916	-0.110616622
Ti	4.969652814	0.400628356	-0.417525854
Cl	6.487251698	2.021242210	-0.759840168
Cl	3.806901313	0.834763714	-2.313682128
Cl	4.271201761	1.204856777	1.574935018
Cl	6.393215857	-1.318809145	-0.403673376
