34

H 	1.603650190	2.331426670	-0.443832270
C 	3.325039030	1.154013770	-0.848276130
C 	2.038849350	1.338080480	-0.437208390
C 	1.162865200	0.294439870	0.042387430
O 	-0.026122910	0.558654300	0.368243060
H 	3.739893940	0.148105600	-0.847506570
H 	4.253137890	1.617579250	2.035161050
H 	5.874774270	0.818559870	1.532476360
H 	4.415533630	-0.251129630	2.035948300
C 	4.840463620	0.727796140	1.844052510
C 	0.599125660	-2.137990090	-0.432271230
C 	1.598106240	-1.150761500	0.209965710
H 	0.554121590	-1.992857550	-1.518235340
H 	-0.404482690	-1.988161950	-0.024223380
H 	0.911115160	-3.169401480	-0.235318450
H 	2.605737560	-1.310812410	-0.183453630
H 	1.645687460	-1.328629660	1.295218460
O 	7.720420910	2.442385710	-2.598122060
H 	7.860305900	1.481882160	-2.516346170
C 	6.439196070	2.759485020	-2.196861400
C 	6.064915200	4.110561310	-2.267937980
C 	4.778222970	4.491266650	-1.874840320
C 	3.861683490	3.550470450	-1.408579150
C 	4.228962250	2.188618710	-1.330288620
C 	5.529788990	1.807037870	-1.731541950
H 	6.784429570	4.839893870	-2.631730770
H 	4.491856200	5.538868100	-1.934490700
H 	5.822627510	0.758726550	-1.669268110
H 	2.868519130	3.870087460	-1.109339380
Ti	-1.431538940	2.183230300	0.480472540
Cl	-2.812976570	3.951921830	0.583672510
Cl	0.026075910	2.995983000	2.011421390
Cl	-1.017084740	2.390109980	-1.734796550
Cl	-2.907719210	0.634261780	1.123756870
