28

H 	 -1.366430	 -1.650587	 -0.025049
C 	  0.000000	  0.000000	  0.000000
C 	 -1.239826	 -0.573864	 -0.000000
C 	 -2.472193	  0.169463	 -0.000000
O 	 -3.618230	 -0.246431	  0.007040
H 	  0.065688	  1.079555	  0.120175
H 	  0.057373	 -0.341489	 -2.844870
H 	  0.953374	  1.249948	 -2.460535
H 	 -0.907734	  1.189260	 -2.399743
C 	  0.039935	  0.667333	 -2.450358
F 	 -2.306229	  1.545016	 -0.016742
C 	  1.433928	 -0.844575	  1.797084
C 	  1.288194	 -0.768292	  0.243395
C 	  2.507941	 -0.004239	 -0.321208
C 	  1.253878	 -2.198586	 -0.335981
H 	  1.088502	 -2.182183	 -1.418947
H 	  2.368507	 -1.360069	  2.049023
H 	  0.597541	 -1.394244	  2.240688
H 	  1.464315	  0.156485	  2.243018
H 	  3.435036	 -0.467904	  0.034704
H 	  2.506402	  1.042834	  0.005660
H 	  2.521096	 -0.024369	 -1.414928
H 	  2.211580	 -2.696337	 -0.145958
H 	  0.469423	 -2.809863	  0.122112
B 	 -4.145002	 -2.284955	 -0.030101
F 	 -3.535273	 -2.645720	  1.117153
F 	 -3.529139	 -2.600942	 -1.187704
F 	 -5.466889	 -2.092669	 -0.030620
