28

H 	1.586195230	2.382253170	-0.305231350
C 	3.356315050	1.171437330	-0.360735080
C 	2.016211620	1.391243480	-0.204388430
C 	1.065568590	0.361826670	0.144623320
O 	-0.132915120	0.463147050	0.325866250
H 	3.707255800	0.141417150	-0.336905820
H 	4.292878500	2.093529690	2.207043770
H 	4.724833610	0.289533870	1.990736980
H 	2.989448700	0.787948080	2.444370670
C 	3.973158830	1.065339910	2.085676550
F 	1.631050060	-0.903386240	0.292991490
C 	4.183368390	2.018635270	-2.510798030
C 	4.324481260	2.178261600	-0.961479500
C 	5.782241040	1.838489780	-0.570647430
C 	3.999665010	3.637402020	-0.572765650
H 	4.034647910	3.777391120	0.513383430
H 	4.893584130	2.688785010	-3.010938180
H 	3.169300060	2.271648390	-2.837811140
H 	4.401584980	0.991296530	-2.825926910
H 	6.477177890	2.470060280	-1.136396430
H 	6.016623550	0.790975610	-0.797016840
H 	5.964002760	2.007191840	0.495073340
H 	4.734899630	4.312525750	-1.026366200
H 	3.009028000	3.944760810	-0.925402060
B 	-1.238623390	2.409693510	0.291382940
F 	-0.851902440	2.783547490	-0.942339160
F 	-0.588951670	2.938947550	1.343325000
F 	-2.438962140	1.856203480	0.464598150
