66

C 	-5.648192814	1.771689239	3.557847052
C 	-3.118784796	1.055766402	2.527850090
C 	-1.617921317	-0.974385290	3.431432047
O 	0.408373009	-1.714566276	2.446718610
H 	1.410846791	-8.867062571	-5.361839572
H 	-5.975004885	0.645785614	5.271114142
H 	-2.409433388	2.041825985	0.865245594
H 	10.598513210	0.738008671	2.878030608
H 	7.788200106	-0.720686855	3.966078672
H 	0.440550491	-7.536686138	-2.449424698
H 	9.710816574	-2.288003631	1.727323987
C 	-7.688146024	0.949669127	1.612432324
H 	-7.489946710	1.946262044	-0.186718226
H 	3.689283533	-7.850039957	-3.151970069
H 	-2.595500981	-2.355050245	-3.310303267
H 	-9.591488098	1.285703836	2.339295050
H 	-7.518777411	-1.073457659	1.224406941
N 	5.398254878	-0.756492365	-0.654561181
C 	5.068010819	-1.944512951	-2.913149467
N 	2.701558836	-2.923287697	-3.228545381
C 	7.568240936	0.793553107	0.102913105
H 	3.906865899	-0.759064169	0.551481062
C 	1.932505688	-4.757135036	-5.159187213
H 	1.563111927	-2.817524695	-1.691388445
H 	8.819536998	0.810101344	-1.537699967
C 	1.841818695	-7.408631701	-3.965962227
C 	8.995267903	-0.439585068	2.310954034
H 	7.933249209	4.827989126	-3.051299672
H 	3.456244075	-4.737127900	-6.552624676
C 	6.710504056	3.510525872	0.602176461
C 	5.539553480	4.235649389	2.864575380
C 	4.709638319	6.710468321	3.230068103
C 	5.042284881	8.517561522	1.340392189
C 	6.211283011	7.824889668	-0.917062319
C 	7.033446421	5.346936247	-1.278320279
H 	5.258147125	2.868923715	4.371347825
H 	3.807197454	7.229827553	5.003520192
H 	4.402361784	10.449802063	1.628594755
H 	6.489071296	9.216891808	-2.404345886
C 	-0.536148410	-3.893099509	-6.582623284
C 	-1.109374663	-5.779243752	-8.735311432
H 	-2.657549685	-5.064250699	-9.906913888
H 	-1.686392803	-7.632820739	-8.028333557
H 	0.531764018	-6.044741864	-9.968213731
C 	-0.085253955	-1.268569784	-7.772846950
H 	1.516673779	-1.298301771	-9.079437022
H 	-1.758616038	-0.668952711	-8.832948328
H 	0.304253030	0.166017372	-6.339208324
C 	-2.854627351	-3.744746125	-4.818439036
H 	-3.296013989	-5.565603127	-3.944032428
H 	-4.525266415	-3.162699707	-5.893376747
C 	-3.888569344	5.111024708	6.525588137
C 	-5.859459319	4.637591736	4.427025544
C 	-8.508122605	5.134875849	5.544194137
C 	-5.394487539	6.509744201	2.241742417
H 	-6.745716570	6.260169338	0.697704403
H 	-4.031313265	7.053496547	7.224297289
H 	-1.958379591	4.829478665	5.842797944
H 	-4.183907081	3.845682936	8.137376877
H 	-8.567509648	7.019177930	6.398040052
H 	-8.984217729	3.769458433	7.025979792
H 	-9.997105244	5.074654775	4.114047799
H 	-5.607741223	8.451373713	2.925629067
H 	-3.487832208	6.348847193	1.461328803
H 	-2.333460842	-1.968035336	5.137670829
S 	7.367597715	-2.172244016	-5.122705068
