66

C 	-5.937124964	3.216191342	3.389197978
C 	-3.511730712	2.192303271	2.385785431
C 	-3.075872246	-0.398423566	1.850646024
O 	-1.078751575	-1.269986250	0.934736422
H 	2.317300887	-9.711724018	-4.806069507
H 	-7.214130187	1.607811026	3.690782640
H 	-1.984427440	3.493189641	1.925995298
H 	9.320970563	1.397403744	3.099958857
H 	6.333105667	0.085181470	3.884594650
H 	0.715958242	-8.067460263	-2.371163174
H 	8.522752500	-1.690871733	2.089891028
C 	-7.158985204	4.892590704	1.320060212
H 	-5.978411210	6.518681753	0.841342961
H 	4.053510885	-8.192933425	-2.401610662
H 	-2.438510869	-3.492107579	-4.645942324
H 	-9.014591068	5.581559330	1.908076445
H 	-7.425096890	3.790446665	-0.408494912
N 	4.705936257	-0.386546536	-1.060287948
C 	4.951905843	-2.135555085	-2.933321129
N 	2.791918023	-3.437483153	-3.439082905
C 	6.716896217	1.239510958	-0.085698695
H 	3.000814683	-0.248523351	-0.197337616
C 	2.550414307	-5.587916986	-5.159138445
H 	1.324801719	-3.136383305	-2.248479489
H 	8.224977007	1.113569031	-1.496735705
C 	2.378187214	-8.037145160	-3.601139238
C 	7.776818759	0.207918561	2.408421840
H 	5.817103197	4.278850597	-4.087117145
H 	4.332328052	-5.631014855	-6.201816494
C 	5.813029690	3.986236748	-0.022641725
C 	5.338595913	5.307635292	2.219551843
C 	4.515696459	7.817221320	2.171143430
C 	4.159155080	9.056463721	-0.124243385
C 	4.637082568	7.764918968	-2.376710576
C 	5.450520608	5.262646820	-2.321138154
H 	5.616888285	4.397562545	4.036652017
H 	4.167516252	8.804915993	3.940600911
H 	3.532308689	11.013489709	-0.162382101
H 	4.381267367	8.712596113	-4.183028972
C 	0.402796241	-5.178196789	-7.176771035
C 	0.480936992	-7.372248952	-9.099489188
H 	-0.832273587	-6.998949435	-10.654029315
H 	-0.065319773	-9.179228095	-8.260995689
H 	2.368465615	-7.591885534	-9.920084348
C 	0.907238527	-2.694693012	-8.621567082
H 	2.772345852	-2.706319753	-9.513267848
H 	-0.507008370	-2.435765630	-10.109685566
H 	0.818918480	-1.050189068	-7.376039575
C 	-2.254035050	-5.058501482	-5.982324338
H 	-2.745674227	-6.805432848	-4.992672457
H 	-3.678659140	-4.768081986	-7.455281227
C 	-4.525272543	2.609925627	7.941683541
C 	-5.676958099	4.531529357	6.072599891
C 	-8.323230542	5.269686217	7.048796705
C 	-3.992576763	6.906637164	5.991722337
H 	-4.751050856	8.360075802	4.734131495
H 	-4.429273517	3.421466055	9.842051318
H 	-2.608140099	2.060721756	7.398575805
H 	-5.667153150	0.887159801	8.056941850
H 	-8.191451559	5.949429978	8.998736224
H 	-9.614516659	3.651670977	7.042274649
H 	-9.185049939	6.781345569	5.936446019
H 	-3.866050414	7.741185783	7.880921133
H 	-2.065190216	6.476587186	5.384333216
H 	-4.651475507	-1.715144661	2.292020119
S 	7.694293733	-2.604789374	-4.504455352
