66

C 	-5.648192807	1.771689240	3.557847051
C 	-3.118784805	1.055766394	2.527850094
C 	-1.617921317	-0.974385297	3.431432045
O 	0.408373003	-1.714566268	2.446718607
H 	1.410846788	-8.867062569	-5.361839580
H 	-5.975004885	0.645785621	5.271114147
H 	-2.409433382	2.041825991	0.865245595
H 	10.598513205	0.738008670	2.878030616
H 	7.788200104	-0.720686854	3.966078679
H 	0.440550486	-7.536686138	-2.449424697
H 	9.710816570	-2.288003628	1.727323988
C 	-7.688146033	0.949669119	1.612432332
H 	-7.489946707	1.946262052	-0.186718219
H 	3.689283540	-7.850039957	-3.151970060
H 	-2.595500982	-2.355050245	-3.310303262
H 	-9.591488105	1.285703829	2.339295051
H 	-7.518777414	-1.073457664	1.224406937
N 	5.398254872	-0.756492370	-0.654561189
C 	5.068010818	-1.944512953	-2.913149460
N 	2.701558829	-2.923287688	-3.228545384
C 	7.568240939	0.793553104	0.102913105
H 	3.906865896	-0.759064162	0.551481066
C 	1.932505694	-4.757135027	-5.159187207
H 	1.563111931	-2.817524693	-1.691388437
H 	8.819537008	0.810101338	-1.537699968
C 	1.841818704	-7.408631696	-3.965962221
C 	8.995267910	-0.439585064	2.310954033
H 	7.933249206	4.827989118	-3.051299668
H 	3.456244075	-4.737127899	-6.552624684
C 	6.710504053	3.510525875	0.602176458
C 	5.539553472	4.235649382	2.864575379
C 	4.709638319	6.710468329	3.230068103
C 	5.042284881	8.517561523	1.340392181
C 	6.211283020	7.824889675	-0.917062325
C 	7.033446418	5.346936246	-1.278320273
H 	5.258147120	2.868923725	4.371347831
H 	3.807197449	7.229827554	5.003520198
H 	4.402361776	10.449802070	1.628594748
H 	6.489071299	9.216891801	-2.404345891
C 	-0.536148406	-3.893099516	-6.582623290
C 	-1.109374667	-5.779243753	-8.735311442
H 	-2.657549684	-5.064250707	-9.906913897
H 	-1.686392796	-7.632820748	-8.028333557
H 	0.531764019	-6.044741870	-9.968213727
C 	-0.085253951	-1.268569789	-7.772846946
H 	1.516673787	-1.298301770	-9.079437024
H 	-1.758616043	-0.668952714	-8.832948320
H 	0.304253025	0.166017382	-6.339208324
C 	-2.854627352	-3.744746133	-4.818439034
H 	-3.296013988	-5.565603121	-3.944032420
H 	-4.525266425	-3.162699717	-5.893376745
C 	-3.888569351	5.111024710	6.525588146
C 	-5.859459312	4.637591730	4.427025550
C 	-8.508122613	5.134875857	5.544194140
C 	-5.394487537	6.509744206	2.241742409
H 	-6.745716569	6.260169332	0.697704408
H 	-4.031313268	7.053496542	7.224297298
H 	-1.958379588	4.829478662	5.842797937
H 	-4.183907088	3.845682932	8.137376886
H 	-8.567509659	7.019177925	6.398040058
H 	-8.984217733	3.769458442	7.025979802
H 	-9.997105250	5.074654771	4.114047809
H 	-5.607741228	8.451373712	2.925629077
H 	-3.487832218	6.348847203	1.461328802
H 	-2.333460839	-1.968035335	5.137670827
S 	7.367597713	-2.172244010	-5.122705071
