26

H 	1.689263396	2.129709390	-0.687233835
C 	3.424883688	0.904984706	-0.501102077
C 	2.039511826	1.127554279	-0.448228008
C 	1.071005957	0.220913736	0.036312584
O 	-0.152602755	0.565752712	0.195578838
H 	3.835284536	-0.089197113	-0.342857800
H 	3.257836961	2.314088228	1.746552534
H 	4.839368316	1.328212409	1.716639142
H 	3.241362211	0.520140186	2.181322451
C 	3.752821577	1.349434285	1.703920351
C 	0.886375427	-2.165165235	-0.773244184
C 	1.389135352	-1.230234320	0.351494818
H 	1.397769032	-1.950009298	-1.719057947
H 	-0.189136942	-2.029623589	-0.924850113
H 	1.072882500	-3.212374829	-0.510990322
H 	2.463104073	-1.379441850	0.508564208
H 	0.877361028	-1.477480590	1.289352326
C 	5.712667976	1.640278080	-1.090052673
H 	6.165203032	2.165413029	-1.936068155
H 	5.997166710	0.584423724	-1.146842124
H 	6.113340065	2.061954165	-0.155699631
N 	4.258669946	1.753684458	-1.171137042
H 	3.892923319	2.684238852	-1.354867395
Zn	-0.928619802	2.434146015	0.353960791
Cl	-2.977339291	2.490499078	-0.306594851
Cl	0.581850641	3.793839499	1.178459764
