25

H 	  1.919962	  0.919415	  0.001136
C 	  0.000000	  0.000000	  0.000000
C 	  1.345543	 -0.000000	  0.000000
C 	  2.158019	 -1.207864	 -0.000000
O 	  3.364191	 -1.298474	  0.012595
H 	 -0.517966	 -0.959901	 -0.000925
C 	 -1.807396	  1.123902	 -1.254053
C 	 -0.896566	  1.211715	  0.002938
C 	 -0.114790	  2.540023	 -0.008945
C 	 -1.784176	  1.133325	  1.277951
H 	 -1.172721	  1.193832	  2.185270
H 	 -2.516916	  1.959875	 -1.254618
H 	 -2.380627	  0.189321	 -1.264969
H 	 -1.213172	  1.174584	 -2.173388
H 	 -0.814914	  3.382787	 -0.008095
H 	  0.514239	  2.626746	 -0.902308
H 	  0.526613	  2.635622	  0.874689
H 	 -2.495274	  1.967920	  1.283469
H 	 -2.354805	  0.197653	  1.308011
F 	  1.423285	 -2.381327	 -0.015869
Sn	  5.394496	  0.616530	  0.146932
Cl	  4.146443	  1.076114	  2.093877
Cl	  4.275489	  1.229245	 -1.836844
Cl	  7.137683	  2.211500	  0.268156
Cl	  6.531809	 -1.427906	  0.096607
