31

H 	1.620135990	2.227985020	0.499853450
C 	3.554393760	1.202264060	0.163834090
C 	2.072118350	1.265577310	0.284677780
C 	1.136809520	0.175576480	0.196931580
O 	-0.124444910	0.348768950	0.247685780
H 	3.886032550	0.165328300	0.002905890
H 	5.268668720	1.593719410	1.476963580
H 	3.807025800	1.075563100	2.336026790
C 	4.178541460	1.684508280	1.504451890
H 	3.917167990	2.727125120	1.710719640
N 	1.591121020	-1.101605540	0.062985310
H 	2.577398640	-1.318678090	0.022850590
H 	0.911682870	-1.849568670	-0.016263120
C 	3.469181190	1.340730810	-2.374692740
C 	4.074498530	2.001293220	-1.114475080
C 	5.613805110	1.897038480	-1.185475090
C 	3.657877030	3.487926560	-1.066024930
H 	4.046825810	3.992563960	-0.174340700
H 	3.838813590	1.840695880	-3.277928940
H 	2.375933490	1.408601730	-2.377258440
H 	3.751763580	0.281120310	-2.441324440
H 	5.966881260	2.330681530	-2.129337690
H 	5.947415350	0.850963650	-1.153724380
H 	6.104562520	2.440214470	-0.370830590
H 	4.063183340	4.009273990	-1.941656480
H 	2.569363100	3.606606510	-1.089089280
Ti	-1.492817890	1.965801420	0.038715860
Cl	-2.881811670	3.713860930	-0.246703750
Cl	-3.077420380	0.388842750	0.037061430
Cl	-0.689109340	2.684459780	2.028287330
Cl	-0.316088550	2.412344760	-1.859570550
