31

H 	1.599564469	2.230348352	0.544897162
C 	3.550089890	1.242281935	0.217559966
C 	2.066523224	1.283332538	0.299746990
C 	1.147991519	0.196670667	0.091819077
O 	-0.115348712	0.353097828	0.102096089
H 	3.904513804	0.203742523	0.137024032
H 	5.229600165	1.769504978	1.527785460
H 	3.765649479	1.270847460	2.393076026
C 	4.137589348	1.830392149	1.528361153
H 	3.845045092	2.876994406	1.658469627
N 	1.620429742	-1.062225547	-0.119805123
H 	2.609023242	-1.268801977	-0.134181322
H 	0.951621103	-1.808069564	-0.270593159
C 	3.477370048	1.234709565	-2.330624242
C 	4.080006951	1.960198666	-1.105830803
C 	5.617480430	1.839755426	-1.160464578
C 	3.671129642	3.447900161	-1.144689840
H 	4.066327740	4.002734010	-0.286795669
H 	3.865514301	1.674773230	-3.256497597
H 	2.385765740	1.319927523	-2.352647490
H 	3.742976437	0.169026111	-2.333705002
H 	5.981308602	2.213511063	-2.125167986
H 	5.941807290	0.795126233	-1.063231462
H 	6.106720419	2.425817442	-0.375664910
H 	4.075371808	3.913900718	-2.051213941
H 	2.583424729	3.569402745	-1.168645342
Ti	-1.497318514	1.967008559	0.115062548
Cl	-2.905212835	3.720945684	0.093318167
Cl	-3.062328419	0.389342651	-0.125610590
Cl	-0.699295767	2.396763129	2.186578579
Cl	-0.323833137	2.690625805	-1.695171030
