26

H 	  1.938445	  0.931052	 -0.031546
C 	  0.000000	  0.000000	  0.000000
C 	  1.372682	 -0.000000	 -0.000000
C 	  2.207023	 -1.149486	  0.000000
O 	  3.452398	 -1.130920	 -0.107716
H 	 -0.511550	 -0.955931	  0.095842
H 	  0.272763	  0.280743	 -2.881927
H 	 -1.488463	 -0.269050	 -2.566771
H 	 -0.090889	 -1.516823	 -2.517766
C 	 -0.427859	 -0.488860	 -2.581767
I 	  1.328987	 -3.139619	  0.184066
C 	 -2.562581	  3.405941	  0.188412
C 	 -1.183220	  3.592411	  0.014483
C 	 -0.328790	  2.496132	 -0.054852
C 	 -0.842889	  1.182652	  0.049718
C 	 -2.235808	  1.011480	  0.222349
C 	 -3.087234	  2.111421	  0.291309
H 	 -0.777278	  4.597634	 -0.068427
H 	  0.736887	  2.657292	 -0.192117
H 	 -2.639110	  0.003636	  0.299859
H 	 -4.156169	  1.964100	  0.425575
H 	 -3.224970	  4.267022	  0.238400
Al	  4.613534	  0.231268	 -0.761559
F 	  4.006339	  1.623063	 -0.016584
F 	  4.259510	  0.180205	 -2.402805
F 	  6.134496	 -0.256072	 -0.276431
