26

H 	1.938445133	0.931051796	-0.031546459
C 	0.000000000	0.000000000	0.000000000
C 	1.372681577	0.000000000	-0.000000000
C 	2.207023136	-1.149485722	-0.000000000
O 	3.452398244	-1.130919759	-0.107715698
H 	-0.511549660	-0.955931224	0.095841669
H 	0.272762824	0.280742749	-2.881926630
H 	-1.488463373	-0.269050168	-2.566771466
H 	-0.090888565	-1.516822577	-2.517765863
C 	-0.427859236	-0.488860397	-2.581766820
I 	1.328987293	-3.139619085	0.184066362
C 	-2.562580753	3.405941282	0.188411826
C 	-1.183219691	3.592410803	0.014483120
C 	-0.328789690	2.496132353	-0.054851525
C 	-0.842888975	1.182651583	0.049717579
C 	-2.235807928	1.011480213	0.222349437
C 	-3.087234302	2.111420952	0.291308594
H 	-0.777277887	4.597634098	-0.068427165
H 	0.736886902	2.657291758	-0.192116947
H 	-2.639109726	0.003635638	0.299859422
H 	-4.156168652	1.964100145	0.425575096
H 	-3.224969690	4.267022364	0.238400335
Al	4.613534282	0.231267845	-0.761559117
F 	4.006338694	1.623063462	-0.016583725
F 	4.259509975	0.180205319	-2.402804739
F 	6.134495608	-0.256071550	-0.276430866
