27

H 	2.160574360	0.387946150	1.179472370
C 	4.060836410	-0.408152600	0.693265510
C 	2.712614160	-0.455094070	0.766317200
C 	1.896878120	-1.463937610	0.096694360
O 	0.801930140	-1.118400540	-0.479247420
H 	4.645831520	-1.166750240	0.167782120
O 	4.762708170	0.603814970	1.238315560
C 	6.191964090	0.652209450	0.900466400
C 	6.814083650	1.800932440	1.675289150
H 	6.281166710	0.800338260	-0.183854170
H 	6.644509950	-0.312805210	1.170395170
H 	6.341381280	2.750895230	1.403502690
H 	7.883262000	1.863476340	1.438730390
H 	6.704310210	1.648062410	2.754684820
N 	2.240570500	-2.773135880	0.042389710
C 	1.456346250	-3.698418550	-0.798265450
C 	3.221437570	-3.414183060	0.930347830
H 	0.976382980	-3.145020460	-1.604849330
H 	0.683286300	-4.199134110	-0.200116980
H 	2.136089380	-4.452247870	-1.209607800
H 	4.119473410	-3.715861540	0.375411650
H 	2.765005650	-4.312960320	1.363152940
H 	3.501207350	-2.735278900	1.735626100
Al	0.157594380	0.569416510	-0.942807770
F 	1.301964200	1.134290480	-2.047994480
F 	0.165232440	1.431263920	0.514153040
F 	-1.362623200	0.245901740	-1.578811510
