34

H 	1.506754180	2.217510240	0.856492690
C 	3.571494400	1.483593230	0.478594670
C 	2.075232650	1.393192210	0.437020790
C 	1.329509800	0.346662410	-0.183776250
O 	0.057095720	0.368404730	-0.242077350
H 	3.988915980	0.489575350	0.697931150
H 	5.146707550	2.519875110	1.579364910
H 	3.697671950	2.162643720	2.552822130
C 	4.052477350	2.473467640	1.562935000
H 	3.671330800	3.480893630	1.360173800
C 	1.099902320	-1.893866580	-1.414204960
C 	2.037998500	-0.851060840	-0.796591060
H 	0.495614430	-1.453355420	-2.213861080
H 	0.410500290	-2.298653320	-0.666233120
H 	1.685081420	-2.719906180	-1.833671210
H 	2.747580320	-0.467595070	-1.544514140
H 	2.663638680	-1.303867010	-0.010532110
O 	6.562569380	0.844661910	-3.464188470
H 	6.879556810	0.112284500	-2.905094400
C 	5.546838100	1.513702050	-2.814562930
C 	4.970290100	2.603521710	-3.486902280
C 	3.946420490	3.321111500	-2.869409180
C 	3.491053410	2.967934990	-1.593533390
C 	4.070232010	1.877982830	-0.920680520
C 	5.091672500	1.146014290	-1.540480610
H 	5.334790670	2.866775150	-4.476632170
H 	3.492850230	4.161739880	-3.389683550
H 	5.542358850	0.296634730	-1.026042260
H 	2.684565980	3.530164010	-1.131201580
Sn	-1.557022410	1.904023490	0.466340050
Cl	-0.656168280	1.441000230	2.633440640
Cl	-2.957408160	0.318598030	-0.593334390
Cl	-3.259336880	3.427273620	1.190355970
Cl	-0.361391320	3.451885640	-0.918168610
