26

H 	0.842957352	-1.380013044	0.581879548
C 	-0.751533047	0.125491274	0.950200017
C 	0.577725859	-0.329035326	0.471356942
C 	1.527447776	0.506667874	-0.158615655
O 	2.580929418	0.103211309	-0.731241966
H 	-0.796239093	1.222057865	0.871597435
H 	-1.891875700	0.097206436	2.825416121
H 	-0.137005186	0.178158339	3.045861284
C 	-0.934426574	-0.265480356	2.439998889
H 	-0.893303863	-1.351357424	2.575220133
H 	1.334785641	1.596693748	-0.145579834
C 	-1.638288099	0.079912931	-1.441455265
C 	-1.914547159	-0.416007335	-0.003255514
C 	-3.263556908	0.163285415	0.472272310
C 	-1.979561055	-1.958356618	-0.001563584
H 	-2.180657799	-2.358003961	0.998419830
H 	-2.467064572	-0.199263735	-2.102654944
H 	-0.722039572	-0.360515045	-1.850280424
H 	-1.537596699	1.172454102	-1.471869794
H 	-4.052573772	-0.110150863	-0.239050458
H 	-3.228492319	1.258712788	0.529712726
H 	-3.557556660	-0.223826419	1.453304244
H 	-2.791691447	-2.292193014	-0.658552693
H 	-1.051560688	-2.404882614	-0.374931066
I 	2.456359673	-2.328678264	-1.780829577
I 	2.243007343	-4.784738754	-3.099028034
