23

C 	0.312594050	0.501977020	0.144083400
C 	1.453156280	-0.509380330	0.485775160
H 	1.555287210	-1.179383270	-0.375708200
C 	-1.048413190	-0.140407490	0.028480300
H 	0.545260020	0.991434220	-0.808547830
H 	0.229866740	1.263088190	0.928572820
H 	0.918560700	-0.740490980	2.603548320
C 	1.112469210	-1.365676080	1.723884190
H 	1.948075110	-2.033514780	1.959526080
H 	0.223820010	-1.981916460	1.542950440
O 	-1.993505220	-0.027018980	0.740399530
Br	-1.155129220	-1.381858300	-1.603049060
C 	5.198102050	1.649089840	0.936394480
C 	4.151307330	1.862148170	1.841560820
C 	2.946773750	1.167666970	1.698475470
C 	2.763194590	0.251436050	0.648304460
C 	3.819020930	0.047297850	-0.252889540
C 	5.028592960	0.738861510	-0.111847760
H 	4.272892600	2.569462810	2.659860610
H 	2.145527160	1.341688860	2.414404990
H 	3.693707830	-0.660714090	-1.071068600
H 	5.837248550	0.564488400	-0.819013490
H 	6.136454880	2.188286890	1.048685720
