23

C 	0.312594047	0.501977021	0.144083397
C 	1.453156281	-0.509380331	0.485775165
H 	1.555287210	-1.179383269	-0.375708198
C 	-1.048413190	-0.140407492	0.028480297
H 	0.545260019	0.991434218	-0.808547833
H 	0.229866742	1.263088191	0.928572818
H 	0.918560696	-0.740490980	2.603548325
C 	1.112469208	-1.365676084	1.723884190
H 	1.948075115	-2.033514776	1.959526080
H 	0.223820007	-1.981916465	1.542950442
O 	-1.993505223	-0.027018982	0.740399532
Br	-1.155129225	-1.381858305	-1.603049061
C 	5.198102048	1.649089842	0.936394480
C 	4.151307326	1.862148170	1.841560822
C 	2.946773749	1.167666974	1.698475469
C 	2.763194592	0.251436054	0.648304462
C 	3.819020931	0.047297851	-0.252889539
C 	5.028592961	0.738861511	-0.111847759
H 	4.272892603	2.569462811	2.659860609
H 	2.145527165	1.341688861	2.414404994
H 	3.693707833	-0.660714094	-1.071068600
H 	5.837248551	0.564488399	-0.819013487
H 	6.136454882	2.188286895	1.048685715
