69

C 	0.000000000	0.000000000	0.000000000
C 	0.150903759	-1.484801097	0.000000000
C 	1.371213632	-2.215679236	0.000000000
O 	1.364483837	-3.486530259	-0.028652039
H 	1.871699973	-6.598744664	4.677753574
H 	0.991006168	0.463411814	-0.086264933
H 	-0.758789917	-2.084216394	-0.034578973
H 	-2.386072830	-6.090202325	-2.916093002
H 	-0.793847841	-5.340627670	-2.659980646
H 	2.537612666	-5.966824243	3.158347438
H 	-1.136675390	-6.939906418	-1.977042925
C 	-0.825879349	0.415005070	-1.247917498
H 	-1.836445485	-0.000993122	-1.211690128
H 	1.463757819	-7.376706553	3.136954582
H 	1.758971494	-3.125171882	2.773475262
H 	-0.892299892	1.504205437	-1.330801529
H 	-0.346094890	0.036138555	-2.157158254
N 	-0.979071030	-5.177127265	0.056164570
C 	-0.969149992	-5.613803609	1.344500266
N 	0.168093733	-5.300646539	2.023565825
C 	-2.089542135	-5.334614608	-0.892026161
H 	-0.210962490	-4.549887596	-0.214722410
C 	0.412213049	-5.513873815	3.454832755
H 	0.868946541	-4.770938737	1.503525496
H 	-2.779235388	-6.039297677	-0.412798873
C 	1.649962994	-6.412867085	3.622126577
C 	-1.571230520	-5.959347557	-2.195221640
H 	-3.555016041	-4.069417002	0.974049678
H 	-0.464185964	-6.056057647	3.822192198
C 	-2.829173215	-4.003573465	-1.054848967
C 	-2.818001130	-3.261162949	-2.243395092
C 	-3.515666610	-2.049501067	-2.336865437
C 	-4.232933993	-1.564177950	-1.241016331
C 	-4.243465370	-2.295130904	-0.045840280
C 	-3.545920507	-3.499704779	0.046977181
H 	-2.272270418	-3.624851412	-3.109554170
H 	-3.497416111	-1.488380066	-3.268996079
H 	-4.781106714	-0.627292159	-1.315722855
H 	-4.798234510	-1.925372173	0.813910779
C 	0.468393275	-4.149434634	4.232218192
C 	0.489028205	-4.436230445	5.751038704
H 	0.438169190	-3.495524288	6.313245196
H 	1.402733413	-4.955888064	6.059113531
H 	-0.370689757	-5.051011974	6.045651565
C 	-0.804582013	-3.334995245	3.904342999
H 	-1.708356647	-3.910862212	4.132097108
H 	-0.824443176	-2.409251254	4.491626318
H 	-0.843205714	-3.063986864	2.844833442
C 	1.718904263	-3.325858593	3.850141345
H 	2.644298320	-3.839069729	4.134120330
H 	1.704585953	-2.358008763	4.365785306
S 	-2.255240752	-6.492825139	2.045786290
C 	2.714299602	-1.497738572	0.048780037
H 	2.825990344	-0.948843874	0.992220503
H 	2.809470271	-0.767897805	-0.764567194
H 	3.514366425	-2.237034262	-0.032341929
C 	-0.714296233	2.087383530	1.298267583
C 	-0.599938510	0.549155782	1.367097799
C 	0.375937844	0.180448068	2.506767614
C 	-1.986377457	-0.056663339	1.666879327
H 	-1.942627463	-1.144803180	1.772572889
H 	-0.994152279	2.483343255	2.282563725
H 	-1.477544362	2.412888595	0.584019630
H 	0.241890105	2.545027745	1.012671912
H 	-0.001488357	0.550880042	3.467573841
H 	1.364420685	0.627487280	2.340795024
H 	0.499376620	-0.902921705	2.591087998
H 	-2.374666543	0.353275027	2.607402190
H 	-2.709459701	0.173843684	0.878459495
