69

C 	0.435093650	-0.402783040	1.309024090
C 	1.526410580	-1.418852280	1.402550480
C 	2.873891720	-1.184394050	1.798583170
O 	3.721586610	-2.133196720	1.817311810
H 	4.906746640	-4.955524440	6.552994550
H 	0.848139630	0.590673640	1.527037090
H 	1.290853670	-2.442300170	1.109554320
H 	3.593844600	-5.904954900	-2.038125540
H 	4.153444190	-4.388861920	-1.294669200
H 	5.316795250	-3.772376010	5.294225070
H 	4.786127350	-5.941197430	-0.717332390
C 	-0.104060630	-0.381196130	-0.149020500
H 	-0.554682440	-1.340295640	-0.419570150
H 	5.564737060	-5.502642420	4.998266840
H 	2.942624810	-2.155012720	4.565832090
H 	-0.847905450	0.411375470	-0.279589050
H 	0.716972510	-0.192837650	-0.850031450
N 	3.193854920	-4.908311550	1.203400920
C 	3.146688960	-5.474601880	2.440762110
N 	3.547303820	-4.639866990	3.440245840
C 	2.769420840	-5.547945680	-0.050259750
H 	3.383612920	-3.897988010	1.175169760
C 	3.486072040	-4.908812250	4.882783310
H 	3.821903300	-3.698498930	3.153830690
H 	2.623485270	-6.605570130	0.199785010
C 	4.901755150	-4.771699270	5.473723120
C 	3.891182150	-5.435161410	-1.093461610
H 	0.405603290	-5.907317200	1.181327020
H 	3.166809530	-5.951770740	4.972814730
C 	1.413251410	-4.981829520	-0.485544680
C 	1.249055570	-4.168885010	-1.616178470
C 	-0.015563920	-3.674224710	-1.964160350
C 	-1.132270410	-3.985744590	-1.183899270
C 	-0.976863430	-4.790777130	-0.047131640
C 	0.283116900	-5.280957180	0.299525740
H 	2.103647530	-3.919703080	-2.239631080
H 	-0.124194560	-3.045755460	-2.846247370
H 	-2.115471760	-3.607649870	-1.457861290
H 	-1.840179010	-5.038250360	0.567627830
C 	2.386214160	-4.027483210	5.580146530
C 	2.203890940	-4.511240670	7.038027030
H 	1.377999040	-3.968331930	7.515065610
H 	3.102318940	-4.342597390	7.642240190
H 	1.965569180	-5.581986860	7.069501070
C 	1.045533690	-4.211279630	4.828451030
H 	0.763557870	-5.269088270	4.780573670
H 	0.246043400	-3.659407490	5.337820860
H 	1.111325210	-3.839586030	3.800931650
C 	2.772175890	-2.530353320	5.581764340
H 	3.679464710	-2.345366810	6.168019240
H 	1.964603020	-1.933448940	6.023288940
S 	2.648775930	-7.085220700	2.717262060
C 	3.332191120	0.205058670	2.225826770
H 	2.809477220	0.522150250	3.137512450
H 	3.119197630	0.954075710	1.452596610
H 	4.407277300	0.179782070	2.419186670
C 	-1.788849290	0.460512120	2.247285410
C 	-0.704375010	-0.629977830	2.397979510
C 	-0.066684230	-0.498366030	3.799215750
C 	-1.353908680	-2.022595350	2.260912080
H 	-0.627941530	-2.828112660	2.408750150
H 	-2.501951050	0.391271480	3.078663820
H 	-2.356761930	0.351773940	1.317106550
H 	-1.348427390	1.466218310	2.266725870
H 	-0.824360450	-0.643101220	4.579365150
H 	0.373826170	0.497091510	3.941481060
H 	0.718015430	-1.245252370	3.951521870
H 	-2.140526410	-2.141228700	3.016878790
H 	-1.812848600	-2.161493560	1.276752980
