27

H 	1.856320019	-1.082080035	-0.046387464
C 	0.000000000	0.000000000	0.000000000
C 	0.775225831	-1.135995439	-0.000000000
C 	0.246168266	-2.464851661	-0.000000000
O 	0.838766001	-3.529539817	-0.095147185
H 	-1.067754131	-0.114193290	0.168552656
H 	0.363740829	0.034105988	-2.747899270
H 	-1.140159785	1.057659486	-2.335271858
H 	-1.254597191	-0.806604642	-2.365682302
C 	-0.648904815	0.092247773	-2.367771544
F 	-1.135355339	-2.528248219	0.113779764
C 	1.429989681	4.023373680	0.312943690
C 	0.080481845	3.725528303	0.534251345
C 	-0.370557358	2.411055709	0.417480650
C 	0.519265711	1.366815729	0.089098070
C 	1.876209616	1.682806872	-0.134156495
C 	2.323912137	2.997419475	-0.023593387
H 	-0.618062031	4.517200748	0.795000503
H 	-1.420648024	2.179457329	0.586513735
H 	2.580958232	0.901228622	-0.404583279
H 	3.372274032	3.226270740	-0.200531684
H 	1.784113328	5.048128647	0.398267886
Sn	3.249856410	-4.025955658	-0.977967743
Cl	2.338016317	-6.175836014	-0.770608332
Cl	3.807732727	-2.855105388	0.999942661
Cl	5.420263081	-4.513156089	-1.812683324
Cl	2.436470193	-2.644967161	-2.725166865
