27

H 	1.165365310	2.026529400	-0.687027710
C 	3.045563040	0.993152820	-0.561963670
C 	1.677135390	1.099889560	-0.454731180
C 	0.824622510	0.058182930	0.032967230
O 	-0.374185920	0.096672160	0.271873660
H 	3.488884940	0.008976500	-0.431329000
H 	2.869128670	1.986331750	2.037048140
H 	4.663409970	1.779738830	1.570044240
H 	3.647362020	0.294728930	2.072559490
C 	3.695945380	1.336812560	1.775100700
F 	1.476168210	-1.148145900	0.272234440
C 	5.684506460	3.914039510	-2.255649840
C 	6.125263610	2.606897900	-2.013727200
C 	5.254166750	1.670110480	-1.456787900
C 	3.923150630	2.016530470	-1.139280100
C 	3.493812870	3.338173060	-1.387823760
C 	4.366577100	4.274004340	-1.940650930
H 	7.146609700	2.321442460	-2.255896180
H 	5.598508160	0.655466410	-1.263170180
H 	2.478407790	3.637979320	-1.142424340
H 	4.021632130	5.289089060	-2.125602880
H 	6.362603850	4.648661640	-2.684955650
Sn	-1.950282540	2.193551350	0.623414130
Cl	-3.339608600	0.403488800	1.226702930
Cl	-1.436895420	2.479208460	-1.668968040
Cl	-3.384412650	4.054866940	0.978881550
Cl	-0.174618230	2.757547740	2.092536990
