27

H 	1.168838994	2.036067706	-0.689522495
C 	3.050768602	1.007509857	-0.550300664
C 	1.683745622	1.114836276	-0.444518152
C 	0.835301971	0.071604769	0.042895597
O 	-0.366387922	0.096779968	0.264466214
H 	3.495486376	0.026168546	-0.406271772
H 	3.163518961	2.290582777	1.904374924
H 	4.775137103	1.392452661	1.629257751
H 	3.259686638	0.450640091	2.182340409
C 	3.704228682	1.358759951	1.791822836
F 	1.492520560	-1.122359161	0.303829092
C 	5.678223579	3.915615213	-2.273595065
C 	6.109494393	2.601625057	-2.058430707
C 	5.244086323	1.669802975	-1.485991683
C 	3.927582980	2.028777434	-1.128201750
C 	3.507981298	3.357873571	-1.348264587
C 	4.375871314	4.289238370	-1.914121969
H 	7.118918075	2.305820479	-2.334587207
H 	5.580125417	0.648546503	-1.315658639
H 	2.504824851	3.666802651	-1.067362856
H 	4.039198596	5.310615454	-2.075933765
H 	6.352154950	4.646108056	-2.715186768
Sn	-1.959098648	2.142539089	0.606957017
Cl	-3.323198024	0.335953428	1.216806972
Cl	-1.456737301	2.437274338	-1.685423867
Cl	-3.422979293	3.979633334	0.963212076
Cl	-0.190472967	2.734658087	2.070783999
