27

H 	0.28885700	-1.97656900	0.13789900
C 	-1.01588900	-0.28174200	0.44217300
C 	0.18661900	-0.89560600	0.16496300
C 	1.35901000	-0.13455100	-0.10381700
O 	2.45812600	-0.67540300	-0.37689600
H 	-1.03987700	0.80437300	0.34924900
H 	-0.79495900	-0.74049800	3.25844100
H 	-1.33790400	1.01323000	2.96164300
H 	0.43741100	0.53386200	2.72650600
C 	-0.59802300	0.23335900	2.82734200
C 	-2.74857800	-0.87377500	-1.16388400
C 	-2.38034300	-0.94907900	0.35031600
C 	-3.44994400	-0.16639400	1.13956700
C 	-2.37739700	-2.42320900	0.79546000
H 	-2.07507100	-2.52992000	1.84083300
H 	-3.74486200	-1.30082100	-1.31587400
H 	-2.03625800	-1.43266000	-1.77574600
H 	-2.76822800	0.15979400	-1.52294400
H 	-4.44551000	-0.55060800	0.89963900
H 	-3.43780900	0.89870600	0.88670700
H 	-3.31167700	-0.26330800	2.21835900
H 	-3.38426900	-2.83950500	0.69846600
H 	-1.71415000	-3.04080800	0.18471700
H 	1.30258500	0.96232400	-0.08125800
B 	3.85008200	0.23364900	-0.71119900
F 	3.48319600	1.55466800	-0.52856600
F 	4.11885400	-0.10262800	-2.01093400
