29

H 	2.493677702	0.677220677	0.396558624
C 	4.351240342	-0.226310523	-0.091093318
C 	3.015112285	-0.238368642	0.144483128
C 	2.184936120	-1.429251379	0.081458130
O 	0.948567671	-1.376789740	0.297238836
H 	4.852825555	-1.155940921	-0.348414335
C 	4.750005656	2.239141757	0.309166536
C 	5.614338915	3.326745089	0.344189523
C 	6.973003268	3.158888495	0.034026490
C 	7.465674744	1.897644757	-0.310294207
C 	6.582959190	0.825889805	-0.337317641
C 	5.209719100	0.944659329	-0.036496420
H 	3.701396745	2.381878062	0.552835786
H 	5.235481855	4.309223693	0.612723415
H 	7.649282824	4.009734005	0.060791481
H 	8.511637763	1.735916808	-0.554998439
F 	7.077710486	-0.405227585	-0.676417564
C 	1.756687091	-3.929808422	-0.290897639
C 	2.781157093	-2.790382480	-0.250394920
H 	0.986111750	-3.740642800	-1.044543713
H 	1.252865400	-4.042039172	0.674036136
H 	2.259412549	-4.872014499	-0.534210196
H 	3.301069593	-2.700849033	-1.215205752
H 	3.566142083	-2.999302023	0.490855883
Sn	-0.584728167	0.365438706	0.834030745
Cl	0.824898841	0.647279766	2.738447266
Cl	-2.053164695	-1.483124477	0.769647138
Cl	-2.173869869	2.070334567	1.375502060
Cl	0.176269101	1.299374432	-1.224000862
