30

H 	1.464503680	2.196148130	-0.794014140
C 	3.339450180	1.187902330	-0.486346250
C 	1.971011940	1.293920610	-0.471199070
C 	1.100744950	0.228304010	-0.039423030
O 	-0.160542320	0.228604290	-0.125451540
H 	3.780089080	0.207665240	-0.319519200
H 	3.569412700	2.499228130	1.964169040
H 	5.018807930	1.345660100	1.757775430
H 	3.357068160	0.670152450	2.281434360
C 	3.952504480	1.488327380	1.892788230
O 	1.709071980	-0.840034710	0.511179510
C 	0.840063710	-1.941291140	0.938325230
H 	0.280277780	-2.329410540	0.083218040
H 	0.144290640	-1.589223260	1.704881110
H 	1.522959890	-2.691561890	1.338589580
C 	5.562973800	1.833016840	-1.370234140
C 	6.463617470	2.769730100	-1.880292150
C 	6.085929440	4.109525890	-2.027230350
C 	4.789537200	4.472570800	-1.657964410
C 	3.867879320	3.561812830	-1.160300290
C 	4.253192820	2.211969280	-1.009779770
H 	5.867112730	0.794528780	-1.253694890
H 	7.467338530	2.460322730	-2.162759960
H 	6.770782530	4.859998670	-2.412511260
F 	4.415794790	5.785779640	-1.784040450
H 	2.876597950	3.907692660	-0.881323000
B 	-1.103016680	1.441742190	-0.844637960
F 	-0.843406970	2.573620270	-0.085800920
F 	-2.366747360	0.931742880	-0.716374660
F 	-0.625405120	1.522659540	-2.141597980
