70

C 	0.000000000	0.000000000	0.000000000
C 	0.178106874	-1.353175151	0.000000000
C 	1.468462915	-2.029162705	0.000000000
O 	1.607753745	-3.259213441	0.041054904
H 	0.830572655	-5.524511839	5.109165207
H 	0.873409202	0.634191210	0.141516437
H 	-0.667775664	-2.032015846	-0.031928169
H 	-2.614186817	-6.520188206	-2.462541548
H 	-0.878416105	-6.259688542	-2.188863906
H 	1.769654455	-4.847809918	3.765498220
H 	-1.874037431	-7.010102178	-0.916089455
C 	0.522894763	0.433859537	-2.389464328
H 	-0.438312689	0.130837913	-2.783461305
H 	0.865241203	-6.354578988	3.542231719
H 	0.627916984	-2.049842916	2.824079459
H 	0.757154773	1.489653515	-2.318903841
H 	1.343723744	-0.270456181	-2.434442164
N 	-1.207769842	-4.494138367	-0.062847112
C 	-1.442079580	-4.775326856	1.277768113
N 	-0.358792033	-4.495809611	2.086696181
C 	-2.171122438	-4.866142433	-1.101918927
H 	-0.249146121	-4.288222365	-0.335775350
C 	-0.398872942	-4.597156059	3.545169623
H 	0.481098476	-4.134092962	1.642996657
H 	-3.137560812	-4.919529433	-0.591975838
C 	0.841777074	-5.372286938	4.025761024
C 	-1.864372478	-6.253435158	-1.707853943
H 	-4.347096193	-3.428149318	-1.906896503
H 	-1.292791965	-5.189952196	3.769253174
C 	-2.237794910	-3.777195971	-2.166085200
C 	-1.090934659	-3.389508968	-2.878628416
C 	-1.158597526	-2.394453582	-3.856328058
C 	-2.378013163	-1.766926683	-4.138964900
C 	-3.526286901	-2.144974171	-3.436337004
C 	-3.452614234	-3.142834704	-2.457811055
H 	-0.134348067	-3.865125172	-2.670170709
H 	-0.260010016	-2.105358767	-4.396969608
H 	-2.431219623	-0.992764463	-4.901448311
H 	-4.478794435	-1.663176040	-3.647496054
C 	-0.603974651	-3.195461307	4.232636526
C 	-0.701992591	-3.380799956	5.764147010
H 	-0.985929882	-2.434784888	6.241963518
H 	0.250092666	-3.699266069	6.202487947
H 	-1.464245955	-4.127522137	6.021796334
C 	-1.931059479	-2.586450568	3.726383306
H 	-2.776006038	-3.251618373	3.934503244
H 	-2.116555109	-1.622753461	4.217060080
H 	-1.904095481	-2.419486445	2.645388229
C 	0.553796656	-2.227550333	3.902727767
H 	1.518596939	-2.607215436	4.258882790
H 	0.382842034	-1.256154142	4.383354310
O 	-2.525434900	-5.202403953	1.698681423
O 	2.545038823	-1.183932860	-0.049766055
C 	3.848030489	-1.829586595	-0.022410926
H 	3.959823937	-2.502458653	-0.878231080
H 	3.970540248	-2.401713054	0.902473274
H 	4.571220604	-1.013955782	-0.072236691
C 	-2.531410078	-0.179613177	-0.241733234
C 	-1.343186016	0.671135181	0.253981306
C 	-1.401682565	2.075447962	-0.390945573
C 	-1.438252777	0.844569595	1.801243244
H 	-0.611594821	1.456744478	2.182022603
H 	-3.470298302	0.359924292	-0.071043934
H 	-2.601193202	-1.135497816	0.287280920
H 	-2.450004798	-0.393612040	-1.312173525
H 	-2.289751138	2.611114855	-0.035141740
H 	-1.459221244	2.015023652	-1.481526149
H 	-0.519200067	2.670567692	-0.124446540
H 	-2.380229387	1.344564319	2.058346202
H 	-1.408701973	-0.124720572	2.304966984
