31

H 	1.545399280	2.099352630	-0.490970080
C 	3.376154660	1.023741660	-0.736562140
C 	2.027171710	1.124561320	-0.486775520
C 	1.141855440	0.024136170	-0.158369750
O 	-0.065803950	0.227669470	0.110752460
H 	3.815897650	0.033826280	-0.847095660
H 	4.027312390	1.975215970	1.753204800
H 	5.324717880	0.746830290	1.232339250
H 	3.707930810	0.151593790	1.949264300
C 	4.300051230	0.952784630	1.521378010
C 	0.622025860	-2.458998950	0.263327100
C 	1.671688490	-1.412176480	-0.130003170
H 	-0.217879640	-2.456735560	-0.438993010
H 	0.217120470	-2.254135400	1.260193130
H 	1.070718650	-3.459029870	0.268001560
H 	2.089584530	-1.635710590	-1.123477340
H 	2.526443850	-1.442547090	0.562502840
O 	7.537651970	2.660607560	-2.798566600
H 	7.705438080	1.701774870	-2.835851050
C 	6.303509310	2.888583250	-2.220575910
C 	5.896545240	4.224295300	-2.094890920
C 	4.659024830	4.509085420	-1.511213780
C 	3.824450130	3.486870230	-1.057382560
C 	4.222202920	2.140967250	-1.187918110
C 	5.475943250	1.855327790	-1.766965990
H 	6.554284770	5.014747690	-2.447317670
H 	4.343984480	5.545401480	-1.409155860
H 	5.799216200	0.817944280	-1.864912090
H 	2.870670120	3.735817520	-0.601747820
I 	-1.173019150	2.671390360	0.312148130
I 	-2.363901890	5.192519100	0.563941090
