34

H 	2.757829860	0.334434110	0.972791200
C 	4.468530990	-0.906999920	0.952048030
C 	3.161025740	-0.658466720	0.779903890
C 	2.185595450	-1.566668950	0.143474590
O 	1.344247780	-1.088716620	-0.680349640
H 	4.886211440	-1.874565770	0.669332050
C 	5.467176500	0.107167900	1.440863320
C 	6.570612800	0.338033430	0.412801950
C 	6.247939910	0.843694810	-0.857189980
C 	7.247382570	1.047707620	-1.812942680
C 	8.581291690	0.744330110	-1.512966600
C 	8.910062810	0.236673440	-0.251182320
C 	7.907772500	0.033417680	0.705337720
H 	4.953876580	1.049156870	1.675015740
H 	5.923245090	-0.257388670	2.373539500
H 	5.212644600	1.068134810	-1.103647660
H 	6.981798750	1.439907830	-2.792622720
H 	9.358874430	0.902174570	-2.257580680
H 	9.944497550	0.000069020	-0.009735900
H 	8.168314530	-0.359963810	1.687530040
N 	2.154550460	-2.895832490	0.397057930
C 	1.241069070	-3.761569270	-0.373059680
C 	2.865855260	-3.556073530	1.501847740
H 	0.923715900	-3.244464610	-1.277876940
H 	0.356989380	-4.008688690	0.229436940
H 	1.768734170	-4.687130120	-0.629248450
H 	3.705510330	-4.154831230	1.125135850
H 	2.165311680	-4.224900510	2.015792180
H 	3.237760790	-2.816013180	2.209601150
Ti	0.839060750	0.633672090	-1.783699960
Cl	0.353630270	2.500610330	-2.943108680
Cl	0.462857190	1.599814240	0.234718610
Cl	2.936077700	0.458912580	-2.627951370
Cl	-0.781994670	-0.634198590	-2.680874250
