33

H 	2.159217120	0.522888331	0.055115938
C 	0.000000000	0.000000000	0.000000000
C 	1.463982909	-0.308681843	-0.000000000
C 	2.029294647	-1.623604105	0.000000000
O 	3.282543939	-1.808502056	0.076174263
H 	-0.505939328	-0.672349890	-0.708403794
H 	-1.347170617	1.659686911	-0.436265878
H 	0.134482478	1.652888335	-1.424519431
C 	-0.270755725	1.460593675	-0.424571676
H 	0.198217828	2.158322861	0.278259372
C 	1.893134463	-4.181265557	-0.070710137
C 	1.137996161	-2.848939457	-0.092912162
H 	2.467996704	-4.290555481	0.854365029
H 	2.598230421	-4.250777883	-0.904912545
H 	1.184394072	-5.013264555	-0.141352295
H 	0.411812271	-2.792308652	0.731101687
H 	0.537329309	-2.753079116	-1.011210866
C 	-1.777011472	-1.052164666	1.498092718
C 	-2.334947598	-1.306656320	2.755168113
C 	-1.715911569	-0.833442488	3.917086619
C 	-0.538968154	-0.102256431	3.780245713
C 	0.037348476	0.170759331	2.543990107
C 	-0.594723858	-0.307027400	1.383706015
H 	-2.265447058	-1.427590831	0.601560858
H 	-3.257238781	-1.877371980	2.833577209
H 	-2.126428860	-1.021188753	4.905092764
F 	0.079996812	0.364966853	4.906578340
H 	0.964216549	0.735685470	2.500327045
Sn	5.131713925	-0.353282430	0.282568959
Cl	4.342190780	0.500136313	-1.803904284
Cl	6.245946510	-2.434554465	0.311760329
Cl	7.031952272	1.082006640	0.493964377
Cl	3.999978384	0.366589201	2.262159112
