22

H 	  1.924382	  0.925304	  0.006142
C 	  0.000000	  0.000000	  0.000000
C 	  1.354616	  0.000000	  0.000000
C 	  2.200114	 -1.180282	  0.000000
O 	  3.413282	 -1.193268	  0.025607
H 	 -0.505049	 -0.964797	  0.000538
C 	 -2.651735	  3.349086	  0.018058
C 	 -1.266755	  3.569969	 -0.025646
C 	 -0.383817	  2.494629	 -0.032470
C 	 -0.869172	  1.166837	  0.002885
C 	 -2.266572	  0.962390	  0.043471
C 	 -3.149225	  2.042168	  0.052552
H 	 -0.880226	  4.586048	 -0.054404
H 	  0.685687	  2.683525	 -0.068010
H 	 -2.651220	 -0.055228	  0.069442
H 	 -4.221824	  1.866204	  0.085933
H 	 -3.336801	  4.193862	  0.023693
Cl	  1.340172	 -2.800815	 -0.047037
B 	  4.795391	  0.603232	  0.159672
F 	  4.318690	  1.025644	  1.338842
F 	  4.343092	  1.193152	 -0.956867
F 	  5.905802	 -0.126649	  0.117317
