22

H 	-0.157559924	0.213576015	-0.135786702
C 	-0.067650515	-1.910307804	0.065468622
C 	0.446475960	-0.657611342	0.103025836
C 	1.811573679	-0.314246569	0.458752530
O 	2.276574003	0.804927748	0.520604868
H 	0.594078665	-2.735770463	0.323601692
C 	-4.041918105	-3.116733040	-0.933600171
C 	-3.699855499	-1.757489306	-0.999304433
C 	-2.411543223	-1.341072911	-0.678629189
C 	-1.430619000	-2.280323574	-0.284362068
C 	-1.791093272	-3.645203660	-0.226619666
C 	-3.083834193	-4.059521556	-0.546371317
H 	-4.444298966	-1.024898474	-1.302227846
H 	-2.163125473	-0.284781141	-0.736245301
H 	-1.043819234	-4.376855794	0.074116220
H 	-3.344282644	-5.114048213	-0.494552554
H 	-5.050827967	-3.435926411	-1.185018515
Cl	2.931616291	-1.715447932	0.846023695
B 	1.175479515	2.761551638	0.181744017
F 	0.301702898	2.574730224	1.180609186
F 	0.784101086	2.470544188	-1.067806947
F 	2.254113229	3.513751398	0.377389614
