36

H 	1.987929138	0.942467086	0.233662891
C 	0.000000000	0.000000000	0.000000000
C 	1.500158160	0.000000000	0.000000000
C 	2.358183403	-1.136908973	0.000000000
O 	3.555507243	-1.117475720	0.442123763
H 	-0.408499677	-0.915601298	-0.436462529
H 	-1.677384661	1.246346886	-0.617669787
H 	-0.385371264	1.100544251	-1.833880422
C 	-0.592647668	1.198806409	-0.762040127
H 	-0.157316128	2.146511962	-0.429208378
N 	1.861380777	-2.383471469	-0.423595025
C 	2.695067180	-3.559001490	-0.096692552
C 	1.193778162	-2.485137216	-1.742409293
H 	3.008487179	-3.504408407	0.946435288
H 	3.590904685	-3.602941933	-0.729927291
H 	2.089078853	-4.455683952	-0.256918021
H 	0.389667409	-3.227174066	-1.699027092
H 	1.925646122	-2.798067572	-2.500275263
H 	0.785817945	-1.520259732	-2.040853708
O 	-0.308271962	-2.489752223	1.537705387
H 	0.365895353	-2.426134692	0.819991618
C 	-0.472654334	-1.279481900	2.167330070
C 	-0.838438182	-1.317085182	3.520029895
C 	-1.004244531	-0.133586629	4.232852538
C 	-0.809155167	1.105442620	3.602284733
C 	-0.473038001	1.145389413	2.252798841
C 	-0.333836515	-0.033839626	1.499710332
H 	-0.954746187	-2.287363846	3.995523616
H 	-1.266240079	-0.173423044	5.287435026
H 	-0.334178460	2.106912292	1.767001964
H 	-0.923041354	2.029976890	4.162024483
Sn	4.621851722	0.070735077	2.114663832
Cl	4.352038897	1.982952171	0.704327704
Cl	6.335097596	-1.476199492	1.579226816
Cl	5.761624409	1.216578394	3.888452347
Cl	2.771669379	-0.681978858	3.415444955
