28

H 	0.15160100	-2.04703700	0.31545800
C 	-1.13491800	-0.32033000	0.49197700
C 	0.06235400	-0.96539200	0.27197400
C 	1.25596500	-0.23835700	-0.03651600
O 	2.34774600	-0.79461900	-0.26680400
H 	-1.14203500	0.75748900	0.32594000
H 	-1.04020200	-0.56593700	3.35195700
H 	-1.44897200	1.18136900	2.86835600
H 	0.29527500	0.56487500	2.75685500
C 	-0.76187900	0.34415400	2.83489500
C 	-2.85836400	-0.95339300	-1.10976600
C 	-2.51163800	-0.96803900	0.41097500
C 	-3.57621900	-0.12964600	1.14916400
C 	-2.54921600	-2.42009100	0.92023200
H 	-2.31232600	-2.48591100	1.98544500
H 	-3.86388200	-1.35982500	-1.25733600
H 	-2.15317500	-1.55895000	-1.68457000
H 	-2.84409800	0.06241300	-1.51668400
H 	-4.57451200	-0.51483700	0.92190100
H 	-3.54701200	0.91991200	0.83946900
H 	-3.44406700	-0.17128000	2.23227400
H 	-3.55325600	-2.83164000	0.78081200
H 	-1.85828800	-3.07016800	0.37776900
H 	1.18063100	0.86174300	-0.07746800
Sn	4.44840000	0.27333500	-0.94736600
Cl	6.49183700	1.24219300	-1.64811700
Cl	5.25484400	-1.80480900	-0.24046300
Cl	3.89116700	1.85255500	0.71863800
