28

H 	2.568993750	0.051030270	1.371240180
C 	4.034306660	-0.232203120	-0.139648640
C 	2.929416160	-0.569142990	0.553503590
C 	1.970235820	-1.635825260	0.162233010
O 	0.743081680	-1.364169260	0.109209260
H 	4.312675230	-0.835779570	-1.004978700
C 	5.985227820	1.153923410	-0.770285290
C 	6.846905880	2.236497350	-0.577604730
C 	6.662216000	3.105568720	0.502439040
C 	5.597771700	2.856724190	1.371465780
C 	4.722344780	1.795033290	1.201666330
C 	4.911092350	0.915924460	0.112414170
H 	6.136146680	0.484904100	-1.615247640
H 	7.666270430	2.408687390	-1.271910330
H 	7.317398060	3.955172790	0.673889230
F 	5.410301350	3.700130720	2.438444400
H 	3.907430840	1.665440700	1.907490700
N 	2.417968200	-2.888159500	-0.160602930
C 	1.452622620	-3.885817960	-0.647141350
C 	3.747526360	-3.415807890	0.173483860
H 	0.587605520	-3.374043460	-1.069043670
H 	1.116968300	-4.535068750	0.174214390
H 	1.937599230	-4.504650210	-1.410882100
H 	4.296751600	-3.685410130	-0.738769010
H 	3.635558150	-4.319446820	0.788103840
H 	4.320620480	-2.677437180	0.732120760
I 	0.030240050	1.217980230	-0.220572810
I 	-0.706935520	3.873867470	-0.646839120
