28

H 	2.637998586	0.010838967	1.390925203
C 	4.058594132	-0.257355529	-0.161876726
C 	2.973116044	-0.600653226	0.556588747
C 	1.997918373	-1.651174383	0.169509059
O 	0.774474922	-1.360727721	0.143268998
H 	4.340763397	-0.873963866	-1.016311194
C 	6.149019884	0.997186259	-0.605604813
C 	7.001780002	2.084090967	-0.401073659
C 	6.637983660	3.114913764	0.470809092
C 	5.405342067	3.022079528	1.117746224
C 	4.536892197	1.956691874	0.936518696
C 	4.912979417	0.909913089	0.068012260
H 	6.439108041	0.202098434	-1.289005386
H 	7.953232738	2.134896384	-0.924907837
H 	7.276707578	3.976382314	0.643487857
F 	5.032784205	4.035421606	1.959524720
H 	3.575052630	1.964570419	1.440021815
N 	2.422591706	-2.900096506	-0.183070205
C 	1.444278704	-3.870412785	-0.693106022
C 	3.754032393	-3.441816399	0.110268103
H 	0.565790663	-3.337526841	-1.056670384
H 	1.136483951	-4.566657519	0.099409869
H 	1.903192720	-4.443179448	-1.507194396
H 	4.299367230	-3.660831675	-0.817615663
H 	3.646568576	-4.376912235	0.675492212
H 	4.328832182	-2.733879690	0.705537572
I 	0.058337742	1.239223289	0.119157732
I 	-0.704883561	3.924803920	0.048550345
