14
GO, radical, R2=F, R1=F, Rcat=I2
H	 0.11364217	-0.45034466	-1.22386742
C	-1.02113941	-0.08775749	 0.65625275
C	 0.04328417	-0.69285698	-0.17096325
C	 1.02559467	-1.52999151	 0.44093084
H	-1.39873179	-0.83621541	 1.36242029
H	-1.25668083	 1.50869436	 2.09618355
H	-0.03743066	 1.84583641	 0.84940778
C	-0.45461196	 1.07734875	 1.49920320
H	 0.32494578	 0.70301640	 2.16076033
O	 1.02294637	-1.80397602	 1.63448819
F	-2.08131655	 0.38785547	-0.14244416
F	 2.02231188	-2.02499379	-0.42487950
I	 0.32831353	-1.89167241	 3.49725349
I	-0.63823841	-2.01369818	 6.08921183
