28

H 	2.001784189	0.955694072	0.067721896
C 	0.000000000	0.000000000	0.000000000
C 	1.489409979	-0.000000000	0.000000000
C 	2.373061268	-1.144181671	-0.000000000
O 	3.594451900	-1.052424539	0.315425336
H 	-0.376848658	-1.005016342	-0.241847990
H 	-1.608088848	0.981571714	-1.133561075
H 	-0.137595045	0.676960702	-2.072827547
C 	-0.514906023	0.975994114	-1.088476544
H 	-0.171003643	1.998037166	-0.897547721
N 	1.866492708	-2.376483849	-0.337023267
H 	0.964830756	-2.470713495	-0.785305555
H 	2.522596306	-3.145529774	-0.407181582
C 	-0.028315910	-0.764492905	2.435078912
C 	-0.578983580	0.300241121	1.459192637
C 	-2.118657489	0.191057371	1.422083934
C 	-0.168379291	1.703309781	1.953561856
H 	-0.548481006	2.494847482	1.298056245
H 	-0.476059736	-0.632460605	3.427240516
H 	1.057946293	-0.683870922	2.547753047
H 	-0.264483856	-1.779813566	2.091438267
H 	-2.519634991	0.289569304	2.438264218
H 	-2.440360498	-0.782315786	1.028634769
H 	-2.575907830	0.976953637	0.811855620
H 	-0.584176363	1.876374276	2.953525436
H 	0.919308334	1.803602218	2.029682045
I 	4.102165656	0.729608710	2.227344727
I 	4.536641256	2.512130333	4.338430236
