28

H 	1.594720226	1.818073710	0.988848666
C 	3.576346337	1.119415307	0.274627591
C 	2.118811794	0.975935486	0.545457207
C 	1.264560771	-0.142597543	0.215108379
O 	0.003625155	-0.045441508	0.197511002
H 	4.004060749	0.146837057	-0.011231010
H 	5.374052429	1.686698304	1.406367973
H 	4.130910514	0.877023752	2.374038731
C 	4.295048148	1.595209697	1.562867209
H 	3.909886494	2.565040465	1.895092196
N 	1.840868039	-1.347772636	-0.107673247
H 	2.816252225	-1.533536635	0.084545210
H 	1.220278671	-2.134915529	-0.256336146
C 	3.110475314	1.450262214	-2.213014871
C 	3.840214286	2.056746926	-0.992808013
C 	5.355566536	2.090933055	-1.286802503
C 	3.323905822	3.491218426	-0.753401334
H 	3.823371655	3.968540873	0.097124395
H 	3.343463707	2.027667443	-3.115573079
H 	2.023558666	1.465567332	-2.080580385
H 	3.421540171	0.412244966	-2.387654743
H 	5.538159137	2.643605086	-2.216492503
H 	5.760190690	1.078207058	-1.414926362
H 	5.921273784	2.589531799	-0.492784863
H 	3.523651132	4.105869371	-1.639444061
H 	2.242928482	3.508861712	-0.579925318
I 	-0.902600138	2.314914073	-0.636952160
I 	-1.778102547	4.766077561	-1.660733140
