25

H 	0.408962954	-2.105603842	-0.108426098
C 	0.000000000	0.000000000	0.000000000
C 	-0.343197680	-1.332855350	0.000000000
C 	-1.686986196	-1.807250576	0.000000000
O 	-2.097405027	-2.959482005	-0.133105719
H 	-0.782695984	0.729655205	0.192690592
H 	0.107686747	-0.375797175	-2.750631395
H 	0.131732064	1.461788153	-2.410566526
H 	-1.478383665	0.516791784	-2.343938561
C 	-0.395365900	0.515329145	-2.394198078
F 	-2.649000376	-0.830381429	0.156524753
C 	3.982759771	1.551285256	0.138924300
C 	2.891883451	2.357170539	0.485201880
C 	1.598033365	1.840587343	0.423343913
C 	1.372337219	0.503804174	0.032572774
C 	2.481361183	-0.296649143	-0.318059901
C 	3.771609401	0.225381820	-0.265041971
H 	3.050406206	3.387179088	0.796139272
H 	0.748128300	2.467759831	0.686221948
H 	2.330480984	-1.319072462	-0.654630043
H 	4.617185263	-0.398819048	-0.544203314
H 	4.992156132	1.954328834	0.177013775
Zn	-1.090203706	-4.639609931	-1.032582208
Cl	-1.967797994	-6.392895371	-0.197473213
Cl	0.361325258	-3.738590972	-2.358676663
