25

H 	1.466004070	2.523174180	-0.704420690
C 	3.169733100	1.218686570	-0.680564450
C 	1.828245450	1.508914440	-0.576593080
C 	0.836822000	0.566686520	-0.169408980
O 	-0.345920970	0.767841130	0.107070480
H 	3.472472370	0.175582100	-0.626789660
H 	3.233514170	2.194912130	1.929481170
H 	4.869457780	1.361968460	1.565348120
H 	3.365101860	0.335443340	1.983588730
C 	3.798831890	1.293956900	1.719945940
F 	1.280197550	-0.739245310	-0.062099640
C 	6.204732420	3.913236810	-2.036391350
C 	6.406502380	2.528621490	-2.086178190
C 	5.412768410	1.663624360	-1.627531670
C 	4.192376390	2.166714310	-1.127319290
C 	4.004645520	3.565578690	-1.075207130
C 	5.003983390	4.427045900	-1.523930360
H 	7.337697370	2.125832080	-2.478206260
H 	5.569668240	0.586738810	-1.660874880
H 	3.089664840	3.976434050	-0.655474320
H 	4.853229930	5.503044110	-1.469287330
H 	6.981457960	4.590031350	-2.385965310
Zn	-1.225471960	2.632176230	0.751104260
Cl	-3.264712230	2.625748650	0.127595580
Cl	0.422263240	3.666526580	1.701296500
