28

H 	2.147790511	0.134422119	-0.025971847
C 	0.000000000	0.000000000	0.000000000
C 	1.275809513	-0.507758415	0.000000000
C 	1.573905157	-1.931190792	-0.000000000
O 	2.715325648	-2.414456808	0.048482956
H 	-0.814422453	-0.702346016	0.159788106
H 	0.172017719	0.504386665	-2.706229090
H 	-1.615367144	0.247973211	-2.248376348
H 	-0.481899743	-1.221258583	-2.441357566
C 	-0.611324095	-0.149912060	-2.342774252
O 	0.471460504	-2.738198086	-0.071700788
C 	0.740442490	-4.170643027	-0.060508231
H 	1.254813618	-4.452623814	0.862990476
H 	1.360658050	-4.447256290	-0.918331347
H 	-0.241168536	-4.643086278	-0.120236365
C 	-1.668446960	1.717620853	0.649459796
C 	-2.089387652	3.031605989	0.843490976
C 	-1.225034702	4.092052045	0.544976670
C 	0.055294960	3.827742225	0.048934533
C 	0.449230553	2.508220959	-0.133943178
C 	-0.377913919	1.409275040	0.163671690
H 	-2.341004186	0.893226407	0.878015487
H 	-3.088649290	3.230322971	1.222390089
H 	-1.545005822	5.121126226	0.688155006
H 	0.747901328	4.625557380	-0.204948300
F 	1.699031395	2.288301227	-0.649212302
I 	4.984963174	-0.902939883	0.306835401
I 	7.302378622	0.609755239	0.587702069
