28

H 	1.418618210	2.046184850	-0.668244451
C 	3.345915584	1.110523623	-0.463767499
C 	1.973707810	1.147251114	-0.429048067
C 	1.149303573	0.013592310	-0.041496635
O 	-0.091116131	0.006415160	-0.048191823
H 	3.820404048	0.140182130	-0.339653918
H 	3.469205557	2.434967473	1.952494068
H 	5.003241673	1.397911486	1.749098601
H 	3.397243259	0.597589127	2.259867999
C 	3.927035165	1.456848687	1.865854993
O 	1.856360564	-1.087040016	0.359084046
C 	1.054955899	-2.242953269	0.741170692
H 	0.442154838	-2.574931814	-0.102159486
H 	0.403999388	-1.991869902	1.583937267
H 	1.779407927	-3.008743243	1.022356142
C 	5.526315768	1.788519377	-1.434288737
C 	6.415465334	2.721379862	-1.963987208
C 	6.037676102	4.065974926	-2.064496222
C 	4.771267524	4.467465145	-1.628403979
C 	3.904517186	3.516200698	-1.105330672
C 	4.233168197	2.152208858	-0.996062683
H 	5.820682335	0.744058911	-1.352754762
H 	7.401204898	2.403894581	-2.294286172
H 	6.725374638	4.802875562	-2.471833181
H 	4.448970837	5.503875660	-1.679854775
F 	2.684011097	3.950847239	-0.661127594
I 	-1.608196588	2.107628021	-0.934789419
I 	-3.169593143	4.221088515	-1.847407912
