30

H 	1.908802903	0.914509287	0.184120025
C 	0.000000000	0.000000000	0.000000000
C 	1.348883488	0.000000000	0.000000000
C 	2.195647315	-1.208058819	0.000000000
O 	3.136670143	-1.298878624	0.850798981
H 	-0.527417850	-0.945930607	-0.134964397
O 	-4.462377804	2.034991848	-0.109420737
H 	-4.688775863	1.122816915	-0.363054127
C 	-3.102582363	2.122320011	0.115592491
C 	-2.595205356	3.365523433	0.515280757
C 	-1.225464163	3.499443985	0.762540509
C 	-0.354964780	2.420777130	0.609273947
C 	-0.857614142	1.169567057	0.194793108
C 	-2.241899297	1.031256068	-0.037664461
H 	-3.277735167	4.202475844	0.637832153
H 	-0.835668609	4.460445700	1.089785374
H 	-2.641317235	0.064256321	-0.344797815
H 	0.699962407	2.542981433	0.836963907
N 	1.987094600	-2.231453580	-0.863130593
C 	2.767895561	-3.471142505	-0.719256831
C 	1.155351465	-2.142816278	-2.070235455
H 	3.132553000	-3.553398415	0.304191297
H 	3.624470405	-3.469666747	-1.406563316
H 	2.121056101	-4.321808524	-0.959108226
H 	0.271795256	-2.788166881	-1.982639557
H 	1.745230339	-2.478234842	-2.932196878
H 	0.837644613	-1.114461774	-2.235789198
Zn	3.383363694	-0.110046022	2.515917383
Cl	3.326454022	-1.419317471	4.225439007
Cl	3.591635182	1.976156656	1.935969229
