17
GO, R2=Br, R1=H, Rcat=BF3
H	 0.83345051	-1.35209109	 1.20167740
C	-0.83092072	 0.03538951	 0.93442801
C	 0.35139657	-0.78131674	 0.40158875
C	 1.39689343	 0.07225735	-0.26739819
O	 1.30011208	 1.25282167	-0.44784372
H	-1.19392452	 0.69150371	 0.13740680
H	 0.00939092	-1.50634328	-0.34451216
H	-0.05768346	 0.24518214	 2.94899716
C	-0.44138171	 0.87842746	 2.14736270
H	 0.32560687	 1.60312788	 1.87585802
H	-1.31355949	 1.41759590	 2.51749654
Br	-2.24320939	-1.15875818	 1.41145211
H	 2.25449427	-0.48063876	-0.58946446
B	 1.12240586	 4.51122066	-0.93902243
F	 1.82901296	 4.71347530	 0.14705442
F	-0.18568148	 4.45052564	-0.86840319
F	 1.72388610	 4.36966104	-2.09571852
