35

H 	1.904943661	0.944870774	-0.037629312
C 	0.000000000	0.000000000	0.000000000
C 	1.363627836	-0.000000000	-0.000000000
C 	2.174210185	-1.191536800	-0.000000000
O 	3.433036476	-1.118869527	-0.158493432
H 	-0.545478151	-0.937494713	0.079757267
H 	-0.678689744	0.465556802	-2.840830374
H 	-1.072813766	-1.307505117	-2.428442946
H 	0.701119626	-0.788627807	-2.758383765
C 	-0.335635037	-0.527807451	-2.582871572
C 	2.583192979	-3.720101856	0.079832295
C 	1.572745163	-2.570873087	0.175762139
H 	3.357240462	-3.630230613	0.847952711
H 	3.082896033	-3.725291375	-0.893817133
H 	2.069664528	-4.678151953	0.212970542
H 	1.049955576	-2.588989943	1.143361132
H 	0.783952408	-2.683583028	-0.583181103
C 	-0.817480660	1.257110234	0.142263313
C 	-2.185335667	1.214607156	-0.515963321
C 	-3.141195771	0.263551738	-0.126250504
C 	-4.389154208	0.208210040	-0.753118549
C 	-4.702440910	1.111813594	-1.775234838
C 	-3.762603433	2.073196675	-2.159368307
C 	-2.511759560	2.120603617	-1.534035516
H 	-0.953567976	1.411275446	1.227912861
H 	-0.241336778	2.117579327	-0.215825016
H 	-2.913747247	-0.436493985	0.676913275
H 	-5.119914220	-0.533984065	-0.438819635
H 	-5.673628748	1.070036284	-2.262905322
H 	-3.998890225	2.783477920	-2.948657604
H 	-1.781801320	2.867763044	-1.841122817
Al	4.493428219	0.295311602	-0.809921367
F 	6.060166581	-0.279705082	-0.689258234
F 	4.110870250	1.606298461	0.183405205
F 	3.864952634	0.459766680	-2.366624134
