24

H 	1.926038032	0.922409794	0.052228361
C 	0.000000000	0.000000000	0.000000000
C 	1.353349666	0.000000000	-0.000000000
C 	2.192148381	-1.194337310	-0.000000000
O 	3.426275452	-1.144075415	0.313647626
H 	-0.536537745	-0.951750818	0.002127884
C 	-2.619217201	3.374028239	0.087393165
C 	-1.231106115	3.577551906	0.104694063
C 	-0.359762895	2.492855056	0.077354599
C 	-0.864219401	1.172648488	0.031779665
C 	-2.263605988	0.984106618	0.018456340
C 	-3.133695380	2.073805798	0.044654296
H 	-0.830974869	4.587937570	0.142722550
H 	0.712432398	2.667880192	0.098473485
H 	-2.663505799	-0.028050439	-0.012460265
H 	-4.208796622	1.910862969	0.032900627
H 	-3.293907483	4.226757436	0.109753232
N 	1.692920783	-2.401697080	-0.336979130
H 	2.311134487	-3.204495781	-0.307966178
H 	0.759390759	-2.511116123	-0.706743614
Al	4.514947001	0.196285114	1.042696460
F 	4.213626741	0.081634678	2.692001883
F 	3.913770657	1.629602167	0.364641432
F 	6.052146881	-0.228772922	0.530806320
