29

H 	2.895108920	2.461157030	-0.244528600
C 	4.016931640	0.886869270	-1.135046260
C 	2.961600430	1.391748850	-0.436479550
C 	1.752621840	0.655582270	-0.086237300
O 	0.662297760	1.290175870	-0.032934760
H 	4.032477120	-0.160081090	-1.436391240
H 	1.791506480	1.394615670	3.974996410
H 	0.790042280	-0.189510710	4.000651430
H 	0.725425820	0.943602180	2.501360780
C 	1.138506550	0.690547510	3.470412850
N 	1.774551500	-0.689140440	0.174917770
C 	0.507579520	-1.429205170	0.308851160
C 	2.960250250	-1.403454680	0.666695060
H 	-0.297117690	-0.889171410	-0.188348770
H 	0.246845860	-1.554913470	1.368949050
H 	0.634068450	-2.418811720	-0.146433230
H 	3.320031560	-2.140011800	-0.065464230
H 	2.691323520	-1.936300890	1.587810500
H 	3.758925540	-0.697181040	0.894957310
C 	6.028179560	1.112114730	-2.568540950
H 	7.001577000	1.600941530	-2.462016230
H 	5.637295590	1.315304150	-3.577431900
H 	6.176302770	0.031486180	-2.463032790
N 	5.130173160	1.581422670	-1.512633820
H 	5.124941420	2.582321070	-1.336513080
B 	-0.869142030	2.038148990	-0.118205960
F 	-1.744342670	0.975272910	-0.167835240
F 	-0.806204030	2.780477090	-1.273182460
F 	-0.896833580	2.771007580	1.047239740
