29

H 	2.542699068	2.369824946	-0.236846321
C 	3.761879709	0.859534632	-1.093536534
C 	2.689164841	1.304481192	-0.381163790
C 	1.567206762	0.480429834	0.004577975
O 	0.370683099	0.945219391	0.074972783
H 	3.849927280	-0.187454912	-1.380325366
H 	2.224187234	1.337553727	3.627599550
H 	1.372524931	-0.299985179	3.947447047
H 	0.577128610	0.968071368	2.806708089
C 	1.399049020	0.659272378	3.442000477
N 	1.701185939	-0.840335689	0.317321981
C 	0.488641219	-1.649403125	0.519493931
C 	2.938214888	-1.438199786	0.833838381
H 	-0.309320237	-1.287877919	-0.128633188
H 	0.149645224	-1.588892008	1.562787834
H 	0.724575668	-2.691067106	0.278638604
H 	3.341409454	-2.185768864	0.137668088
H 	2.717678515	-1.935398873	1.786581914
H 	3.684860746	-0.664579880	1.010713482
C 	5.721813229	1.210507250	-2.572044912
H 	6.665966169	1.753826939	-2.466970642
H 	5.321341093	1.386475128	-3.581384109
H 	5.927945545	0.141074732	-2.459341574
N 	4.793705711	1.635259856	-1.523862301
H 	4.699169420	2.636873247	-1.381381404
B 	-0.315248232	2.289985934	-0.503728091
F 	-1.252443248	1.813501609	-1.405992803
F 	0.653833012	3.091948148	-1.113855752
F 	-0.862500128	2.880136164	0.624302340
