32

H 	1.979909142	0.964559391	-0.004513538
C 	0.000000000	0.000000000	0.000000000
C 	1.481333456	-0.000000000	-0.000000000
C 	2.335339314	-1.142266395	0.000000000
O 	3.597070205	-1.009920049	0.079086038
H 	-0.374978563	-1.027062334	-0.087609399
H 	-1.583774866	0.793371451	-1.292632370
H 	-0.103448383	0.349014890	-2.158441027
C 	-0.491382391	0.800487729	-1.239246452
H 	-0.146907486	1.838657696	-1.206101986
C 	1.782503062	-2.546590624	-0.080781757
H 	1.171300777	-2.765260711	0.804088241
H 	2.608442169	-3.258457788	-0.134180993
H 	1.136277548	-2.663494039	-0.959657810
C 	-0.061296497	-0.377288413	2.515380913
C 	-0.572130857	0.547877902	1.386863779
C 	-2.113160283	0.486992272	1.351568432
C 	-0.112544255	1.994569325	1.664841662
H 	-0.438612935	2.684961958	0.879466475
H 	-0.471454909	-0.057905022	3.480398008
H 	1.031591897	-0.351588104	2.592500249
H 	-0.374978196	-1.415805865	2.348108275
H 	-2.512432466	0.739047970	2.341668242
H 	-2.467924099	-0.519144038	1.093670169
H 	-2.540092825	1.197015602	0.635961973
H 	-0.549449501	2.341382837	2.608854513
H 	0.975726883	2.065948189	1.762464641
Ti	5.039156370	0.585999525	0.344424330
Cl	6.421966222	2.327571784	0.636541976
Cl	6.572799865	-1.026329146	0.363308541
Cl	4.273905991	1.274628591	-1.668132023
Cl	3.867727788	0.962852382	2.251716092
