32

H 	  1.979909	  0.964559	 -0.004514
C 	  0.000000	  0.000000	  0.000000
C 	  1.481333	  0.000000	  0.000000
C 	  2.335339	 -1.142266	  0.000000
O 	  3.597070	 -1.009920	  0.079086
H 	 -0.374979	 -1.027062	 -0.087609
H 	 -1.583775	  0.793371	 -1.292632
H 	 -0.103448	  0.349015	 -2.158441
C 	 -0.491382	  0.800488	 -1.239246
H 	 -0.146907	  1.838658	 -1.206102
C 	  1.782503	 -2.546591	 -0.080782
H 	  1.171301	 -2.765261	  0.804088
H 	  2.608442	 -3.258458	 -0.134181
H 	  1.136278	 -2.663494	 -0.959658
C 	 -0.061296	 -0.377288	  2.515381
C 	 -0.572131	  0.547878	  1.386864
C 	 -2.113160	  0.486992	  1.351568
C 	 -0.112544	  1.994569	  1.664842
H 	 -0.438613	  2.684962	  0.879466
H 	 -0.471455	 -0.057905	  3.480398
H 	  1.031592	 -0.351588	  2.592500
H 	 -0.374978	 -1.415806	  2.348108
H 	 -2.512432	  0.739048	  2.341668
H 	 -2.467924	 -0.519144	  1.093670
H 	 -2.540093	  1.197016	  0.635962
H 	 -0.549450	  2.341383	  2.608855
H 	  0.975727	  2.065948	  1.762465
Ti	  5.039156	  0.586000	  0.344424
Cl	  6.421966	  2.327572	  0.636542
Cl	  6.572800	 -1.026329	  0.363309
Cl	  4.273906	  1.274629	 -1.668132
Cl	  3.867728	  0.962852	  2.251716
