64

C 	-1.734649970	-0.166797620	1.961491520
C 	-0.482116670	-0.647157210	1.799986140
C 	0.043360160	-1.880306410	2.389205730
O 	1.163791490	-2.334773230	2.131942640
H 	-1.007582690	-0.097244010	-1.121751740
H 	-2.431170620	-0.726299800	2.585808220
H 	0.230946820	-0.140858220	1.161713250
C 	-1.608811670	-2.823088550	-1.193315370
H 	-1.353146700	-3.879611680	-1.341612640
H 	-2.703465150	-2.746934700	-1.173004900
H 	-1.240355780	-2.508904400	-0.210736990
H 	2.206051920	-3.302590810	-2.810017770
H 	0.848026160	-4.150429450	-2.044845870
H 	0.753659790	-3.682338250	-3.752989920
H 	5.147081500	1.264145930	1.827300260
H 	4.229236210	-0.122479850	2.441455070
H 	5.251259930	-0.315053880	1.001530070
N 	2.666032380	-0.438256380	0.225061110
C 	1.964429750	-0.483766640	-0.973623320
N 	1.125069060	-1.583394850	-1.080697110
C 	3.406690790	0.769127900	0.617398130
H 	2.382260740	-1.081958730	0.965067470
C 	0.533112590	-1.999714400	-2.359875500
H 	1.194808850	-2.286375760	-0.350989720
H 	3.797640970	1.190325200	-0.313756750
C 	1.112947260	-3.367895180	-2.767995010
C 	4.581970810	0.374106690	1.528607280
H 	2.679043330	3.185463200	-0.404958790
H 	0.865230410	-1.248560710	-3.085479740
C 	2.503220790	1.827809760	1.256075890
C 	1.910118040	1.622386440	2.513059140
C 	1.080444800	2.593854330	3.080463250
C 	0.839971940	3.795780760	2.403445280
C 	1.424985810	4.011098040	1.151579280
C 	2.243329880	3.029045200	0.579998090
H 	2.088001970	0.692910310	3.050717350
H 	0.618488020	2.412139520	4.049118920
H 	0.192143960	4.551138910	2.843362530
H 	1.236126500	4.938577570	0.613847770
C 	-1.035654110	-1.928507340	-2.315437290
C 	-1.618442420	-2.374767880	-3.676879050
H 	-2.698922460	-2.185232230	-3.704474710
H 	-1.465546750	-3.444664870	-3.858800730
H 	-1.159501550	-1.817283810	-4.504306170
C 	-1.441917170	-0.461409000	-2.054371870
H 	-1.092257590	0.192836200	-2.861953350
H 	-2.532705870	-0.367975570	-1.979545200
O 	2.076320600	0.377382220	-1.856568910
O 	-0.817578530	-2.501872480	3.250153000
C 	-0.333396020	-3.746893080	3.832938840
H 	0.585358510	-3.569464670	4.400623950
H 	-0.136825900	-4.483023490	3.046876180
H 	-1.137899700	-4.084376990	4.488731940
C 	-3.378391130	3.278957590	0.033157770
C 	-1.997829890	3.042157150	-0.030146030
C 	-1.443447480	1.935951610	0.605581030
C 	-2.261937880	1.035128680	1.323277090
C 	-3.647792310	1.297079770	1.395377650
C 	-4.202427930	2.404356320	0.752202130
H 	-1.349778700	3.722629830	-0.577405890
H 	-0.371653860	1.778174520	0.547674630
H 	-4.288146650	0.613780980	1.951150950
H 	-5.273816880	2.585457720	0.809390400
H 	-3.807480710	4.142169700	-0.471869650
