29

H 	2.534116190	0.116034450	1.210746840
C 	4.106497750	-0.283454070	-0.151807120
C 	2.942044920	-0.567263430	0.469954370
C 	1.983907990	-1.627232070	0.081795270
O 	0.758067710	-1.342395480	-0.002992480
H 	4.475107240	-0.966320460	-0.919398340
O 	7.321089740	4.299916000	0.691296220
H 	8.190547220	4.204917360	0.261533280
C 	6.572776630	3.165081590	0.462635750
C 	5.271262470	3.140620230	0.991121350
C 	4.465234230	2.027886570	0.793440330
C 	4.929165990	0.903448540	0.070392860
C 	6.231319450	0.960489160	-0.468386920
C 	7.051996440	2.071329820	-0.272750590
H 	4.906424880	4.008549020	1.534785430
H 	3.448501430	2.042897960	1.176906280
H 	6.607668200	0.116755640	-1.045286160
H 	8.056910570	2.092237500	-0.693995360
N 	2.413854680	-2.894319290	-0.208547030
C 	1.445679120	-3.876589420	-0.718545120
C 	3.721408580	-3.440608520	0.176459120
H 	0.610092370	-3.351667550	-1.182453230
H 	1.060873540	-4.506845290	0.096357080
H 	1.945552220	-4.517092880	-1.454845600
H 	4.324572260	-3.678407600	-0.711094090
H 	3.571349800	-4.366345450	0.748397750
H 	4.262109420	-2.726855000	0.797499870
I 	0.049762980	1.250406500	-0.128750500
I 	-0.680280680	3.947885230	-0.286611970
