29

H 	1.432293107	-2.574846202	0.461659006
C 	-1.746263940	-0.048286517	1.424344854
C 	0.028877084	-1.388430868	-0.480334889
C 	1.375103741	0.425258084	-2.217814920
O 	3.634763364	0.482481981	-2.612103977
H 	-2.790485754	1.395924904	0.354025935
H 	-1.077002842	-2.601390222	-1.750133013
H 	0.955298562	0.069901292	4.578962104
C 	-0.135017841	1.365051416	3.391467071
H 	1.227720115	2.607194028	2.454435575
H 	-1.280714536	2.556157732	4.625511323
C 	-5.607304055	-2.772591347	0.430555533
C 	-3.854090119	-1.821579041	2.562612564
C 	-5.509382589	-0.296316177	4.424026238
C 	-2.740754390	-4.121445207	3.965899196
H 	-1.515021799	-3.558562012	5.531664937
H 	-7.191731810	-3.835387369	1.229856070
H 	-4.650768352	-4.039852322	-0.891970929
H 	-6.401635599	-1.199036322	-0.655867354
H 	-7.126416790	-1.433533757	5.032877001
H 	-6.256265441	1.422873493	3.544227817
H 	-4.478823954	0.254329980	6.125992728
H 	-4.263126308	-5.272400894	4.765732341
H 	-1.646477705	-5.346115065	2.710749003
H 	0.106423229	1.783785263	-3.223671745
B 	8.446294729	-1.706254791	-0.813159215
F 	7.313391671	-3.150925236	0.899219073
F 	9.254296183	0.575484958	-0.174047957
F 	8.934878664	-2.625881204	-3.088823349
