24

C 	0.660998987	-0.313419677	0.958779605
C 	1.114982466	-0.249539912	-0.324795264
C 	-1.118469109	-0.061479596	-1.509974802
H 	0.594198004	-1.264292757	1.485074777
C 	0.201124246	0.792419646	1.773514511
H 	-1.403520969	-1.100875089	-1.397983323
H 	1.237475554	0.737122114	-0.766264175
H 	-0.775754828	0.286724911	-2.477164030
H 	-1.498122746	0.666919020	-0.805056487
O 	-0.189762348	0.762829143	2.905235903
Br	0.239776466	2.649601597	0.824897533
C 	3.328827710	-1.263894099	-0.598393514
C 	1.833238056	-1.387623413	-1.032090924
C 	1.761972637	-1.222559345	-2.567795155
C 	1.300947036	-2.780910508	-0.634255674
H 	0.232252063	-2.873826924	-0.857737607
H 	3.921711536	-2.035539585	-1.104325986
H 	3.432378185	-1.392408792	0.484155974
H 	3.739021251	-0.283818149	-0.868178274
H 	2.446214415	-1.929562382	-3.051131525
H 	2.053587200	-0.209340315	-2.869946812
H 	0.754117955	-1.417532924	-2.945633010
H 	1.834563805	-3.555681063	-1.196689788
H 	1.448599620	-2.987871821	0.431162504
