24

C 	0.627116800	-0.337402890	0.953976810
C 	1.111139460	-0.254421240	-0.320164250
C 	-1.083291240	-0.005858980	-1.531340530
H 	0.526637280	-1.298937760	1.454536830
C 	0.164208760	0.756513950	1.784002360
H 	-1.410538250	-1.035688000	-1.443319450
H 	1.268405290	0.738696090	-0.737349250
H 	-0.704924670	0.342066670	-2.485646850
H 	-1.462491460	0.728142100	-0.831356850
O 	-0.267287330	0.705647390	2.901554020
Br	0.280391200	2.629894010	0.886349800
C 	3.335264630	-1.237148990	-0.630173770
C 	1.831991090	-1.392176080	-1.028557390
C 	1.728004610	-1.256875770	-2.567281610
C 	1.330596040	-2.787041040	-0.595035700
H 	0.255831280	-2.896713820	-0.781451230
H 	3.926660410	-2.018445840	-1.123842780
H 	3.463910230	-1.329189020	0.453719380
H 	3.727809890	-0.261556860	-0.941414090
H 	2.418495340	-1.959996410	-3.048354880
H 	1.992618080	-0.243889250	-2.894883380
H 	0.717520920	-1.480839100	-2.922080990
H 	1.855536650	-3.563088380	-1.164421800
H 	1.516752180	-2.976250700	0.467940060
