24

C 	0.627116797	-0.337402889	0.953976807
C 	1.111139456	-0.254421244	-0.320164253
C 	-1.083291244	-0.005858977	-1.531340527
H 	0.526637281	-1.298937760	1.454536832
C 	0.164208761	0.756513952	1.784002362
H 	-1.410538251	-1.035687999	-1.443319454
H 	1.268405290	0.738696087	-0.737349247
H 	-0.704924670	0.342066669	-2.485646847
H 	-1.462491458	0.728142096	-0.831356852
O 	-0.267287328	0.705647391	2.901554018
Br	0.280391197	2.629894008	0.886349804
C 	3.335264628	-1.237148994	-0.630173767
C 	1.831991088	-1.392176081	-1.028557395
C 	1.728004609	-1.256875766	-2.567281608
C 	1.330596041	-2.787041042	-0.595035700
H 	0.255831279	-2.896713825	-0.781451227
H 	3.926660410	-2.018445837	-1.123842777
H 	3.463910235	-1.329189019	0.453719380
H 	3.727809888	-0.261556862	-0.941414095
H 	2.418495339	-1.959996407	-3.048354881
H 	1.992618077	-0.243889255	-2.894883381
H 	0.717520919	-1.480839098	-2.922080991
H 	1.855536647	-3.563088376	-1.164421797
H 	1.516752179	-2.976250703	0.467940057
