25

H 	-0.278193506	-2.780180862	-0.057722369
C 	-0.650573007	-0.698564316	0.678348167
C 	0.102726207	-1.759523391	-0.055817248
C 	1.318569046	-1.520897740	-0.746862023
O 	1.979386806	-2.438644923	-1.305821936
H 	-0.079181851	0.233778464	0.609439660
H 	-1.370321425	-0.236834535	2.677218688
H 	0.170507685	-1.118543297	2.659055672
C 	-0.809768007	-1.034599923	2.180208907
H 	-1.345127996	-1.975092773	2.335071703
H 	1.697009850	-0.487247949	-0.769591560
C 	-4.452361300	0.073069674	-1.290236391
C 	-3.447437075	1.039105317	-1.282050738
C 	-2.225425011	0.774057190	-0.665313673
C 	-1.993655699	-0.452662503	-0.029218388
C 	-3.008784720	-1.419941101	-0.051623655
C 	-4.227308219	-1.158338881	-0.674263539
H 	-3.612512931	2.003618752	-1.756927465
H 	-1.449886123	1.536936029	-0.667819026
H 	-2.860009461	-2.384923996	0.425788087
H 	-5.004142153	-1.919674172	-0.677173607
H 	-5.404026531	0.276785521	-1.775511137
Sn	4.175300461	-1.908996515	-2.337056105
Cl	3.381737280	0.289173678	-3.071073359
Cl	5.024658300	-1.259852319	-0.140534535
