27

H 	  1.994026	  0.954557	  0.156939
C 	  0.000000	  0.000000	  0.000000
C 	  1.489113	 -0.000000	  0.000000
C 	  2.380672	 -1.107565	  0.000000
O 	  3.577129	 -1.090587	  0.251913
H 	 -0.368917	 -0.978640	 -0.320462
H 	 -1.690763	  1.116345	 -0.788344
H 	 -0.370659	  0.872198	 -1.957533
C 	 -0.602340	  1.089111	 -0.909089
H 	 -0.205472	  2.082831	 -0.675818
I 	  1.493529	 -3.094156	 -0.584000
C 	 -0.768262	  0.376266	  4.265256
C 	 -0.490654	  1.519116	  3.506183
C 	 -0.262509	  1.410928	  2.133486
C 	 -0.323758	  0.158269	  1.498104
C 	 -0.587999	 -0.986158	  2.270208
C 	 -0.820305	 -0.876523	  3.641872
H 	 -0.443311	  2.493986	  3.985933
H 	 -0.036133	  2.304648	  1.557912
H 	 -0.603037	 -1.962271	  1.791534
H 	 -1.032606	 -1.768745	  4.226492
H 	 -0.935037	  0.460264	  5.336569
Sn	  4.855294	  0.338930	  2.285134
Cl	  4.430978	  2.062833	  0.724946
Cl	  6.426765	 -1.269703	  1.633391
Cl	  5.958291	  1.507148	  4.022208
Cl	  2.911827	 -0.454694	  3.351500
