27

H 	1.895481540	2.101338710	0.915628780
C 	3.847110500	1.178931110	0.416917000
C 	2.369889650	1.166940060	0.610795470
C 	1.436136490	0.132265410	0.323739780
O 	0.215891500	0.223714830	0.301048700
H 	4.203829830	0.157778700	0.251768390
H 	5.673367860	1.862559200	1.380422590
H 	4.484500560	1.152102960	2.500393720
C 	4.605713290	1.788108860	1.616375990
H 	4.238386180	2.789426560	1.866288830
I 	2.309035530	-1.905130570	-0.076988690
C 	4.229573110	3.322641910	-3.350130580
C 	4.002313780	4.033625050	-2.165489460
C 	3.893601670	3.355003890	-0.949883930
C 	4.021038260	1.955395780	-0.902527850
C 	4.231326480	1.247260590	-2.098097390
C 	4.347732440	1.927268500	-3.312734790
H 	3.903332590	5.116796820	-2.190225750
H 	3.707686080	3.917851860	-0.038177170
H 	4.302927740	0.162072630	-2.071152710
H 	4.524997410	1.369569120	-4.230057870
H 	4.308814380	3.852296230	-4.297021040
Sn	-1.354177490	2.385872230	-0.520720920
Cl	-0.644965440	3.105514040	1.617936740
Cl	-2.814598020	0.554549200	-0.565730270
Cl	-2.710530440	4.190099550	-1.231379830
Cl	0.383806220	2.388358610	-2.114355700
