8
C3H4O optimized with ADF in AMS.
H        0.09147745879135      -1.80967022950553      -0.51025495849694
C       -0.91317399491607      -0.00518844104609      -0.04952713556231
C        0.17892857348659      -0.75159681085096      -0.26282122182639
C        1.56244455974882      -0.21271667759222      -0.18141421384073
O        1.85591781172201       0.93924051414379       0.07970497569417
H       -0.82332575239090       1.04912076756449       0.20045111987258
H       -1.91237939391074      -0.42665018959745      -0.11843281656074
H        2.36199679746894      -0.96437540311602      -0.38501708927965
