35

H 	1.910211747	0.926757223	-0.168494076
C 	0.000000000	0.000000000	0.000000000
C 	1.373546858	-0.000000000	-0.000000000
C 	2.231637626	-1.178685820	0.000000000
O 	3.335196677	-1.186564894	-0.647897393
H 	-0.536076671	-0.902576160	0.274635930
H 	-0.288767131	0.164914532	-2.700204190
H 	-1.671167736	-0.868840107	-1.997249043
H 	0.020967452	-1.610573189	-2.262270191
C 	-0.612753866	-0.733718517	-2.191845062
N 	1.889718794	-2.328275538	0.643475944
C 	0.935283280	-2.399027238	1.758271446
C 	2.717182353	-3.530498492	0.445188684
H 	0.684766132	-1.397841681	2.108194313
H 	1.403991785	-2.950456913	2.581811101
H 	0.018126347	-2.927909751	1.467412873
H 	2.074032756	-4.411752904	0.537567983
H 	3.511952262	-3.584883951	1.201458832
H 	3.177882391	-3.501559088	-0.541697019
C 	-2.139732954	1.165825774	0.482533948
C 	-2.938382298	2.310519683	0.523721746
C 	-2.442829198	3.536589198	0.069512728
C 	-1.137010654	3.574894280	-0.418803359
C 	-0.317680681	2.456117054	-0.469970744
C 	-0.818170732	1.225119666	-0.001855317
H 	-2.537238804	0.215417493	0.832537003
H 	-3.953946377	2.250943258	0.907482482
H 	-3.043100622	4.441857208	0.083215604
F 	-0.645873879	4.766750260	-0.876153884
H 	0.681175773	2.547833051	-0.885758853
Sn	4.518655507	0.329839748	-1.865056399
Cl	5.893771593	-1.580650362	-2.159875948
Cl	4.581439922	1.572143366	0.176717890
Cl	5.873031262	1.856515978	-3.131197203
Cl	2.555520721	0.558516085	-3.211303556
