35

H 	1.566306444	2.004905825	-0.905297847
C 	3.415223397	1.022521174	-0.514651435
C 	2.044314645	1.096401530	-0.556863473
C 	1.114871665	0.134149549	0.022642267
O 	0.013822790	0.520397462	0.548170209
H 	3.893998194	0.080079216	-0.269652115
H 	3.717311369	2.538531449	1.724129847
H 	5.032079407	1.217779474	1.695402707
H 	3.297615383	0.810688339	2.251853084
C 	3.984330843	1.490516638	1.760231397
N 	1.384062905	-1.199109520	0.072468234
C 	2.330771614	-1.885033854	-0.817460074
C 	0.483999465	-2.081039004	0.834990366
H 	2.642340148	-1.222149856	-1.624359836
H 	1.827694498	-2.755666655	-1.254371796
H 	3.213805816	-2.237067702	-0.268083128
H 	1.071209225	-2.917146850	1.228554901
H 	-0.313637824	-2.474254895	0.190228749
H 	0.027314894	-1.523309910	1.651937650
C 	5.622396148	1.656356275	-1.461798400
C 	6.490350773	2.571514837	-2.060965263
C 	6.072300353	3.881006977	-2.317069428
C 	4.772024403	4.235470848	-1.958294055
C 	3.885047518	3.348736208	-1.364529902
C 	4.307701346	2.027601537	-1.117661848
H 	5.959801648	0.641635909	-1.261077082
H 	7.499754110	2.268304887	-2.328099464
H 	6.727466827	4.616151835	-2.775700709
F 	4.356267118	5.517072264	-2.193982833
H 	2.894353668	3.695036301	-1.085948254
Sn	-1.071795995	2.508158611	0.775703400
Cl	-2.562194771	1.099447590	1.968213369
Cl	-1.060288254	2.522971693	-1.615060193
Cl	-2.327300854	4.539123598	1.034692399
Cl	0.903556675	3.291447193	1.872523024
