70

C 	-1.262630020	1.147329400	1.796735710
C 	-0.233215210	0.352161460	1.459623360
C 	0.075946110	-0.948936410	2.066563820
O 	1.014751260	-1.668898560	1.706541030
H 	0.648668220	-3.141447550	-4.188872200
H 	-1.936680960	0.825905190	2.591902340
H 	0.452759350	0.636616220	0.671560550
H 	5.731889790	0.774723390	0.914245020
H 	4.613800800	-0.400821950	1.626758970
H 	1.065311350	-3.651222810	-2.537561570
H 	5.323735780	-0.718214310	0.026549750
C 	-3.816952280	-1.229615370	1.348679860
H 	-3.398772410	-0.779798520	0.459314060
H 	2.099143380	-2.494582820	-3.404650700
H 	-0.993133350	-2.677801540	-0.353626650
H 	-4.887252010	-1.362021880	1.459825630
H 	-3.146406370	-1.594049040	2.117798200
N 	2.701435750	-0.173975190	-0.317013660
C 	1.947789530	-0.169613630	-1.460313830
N 	0.943330860	-1.107988450	-1.451928250
C 	3.760156330	0.794961980	-0.001683730
H 	2.407655340	-0.807684520	0.428821970
C 	0.273698320	-1.606450020	-2.665513440
H 	0.927966370	-1.731842850	-0.646996300
H 	4.091911140	1.188085940	-0.967257060
C 	1.061949690	-2.802789020	-3.233283400
C 	4.929733440	0.064685350	0.684316220
H 	3.626555430	3.417452080	-0.715228700
H 	0.339643660	-0.781813160	-3.383193430
C 	3.245907920	1.969209920	0.830883010
C 	2.754053670	1.779672270	2.132626080
C 	2.309592120	2.864069860	2.893530540
C 	2.354426720	4.159141450	2.362784560
C 	2.834751020	4.357812700	1.063997630
C 	3.272049900	3.267193040	0.302393950
H 	2.712151800	0.777511690	2.554790600
H 	1.928029040	2.699369850	3.899755840
H 	2.010568950	5.005194130	2.954811300
H 	2.862882780	5.359830080	0.640425250
C 	-1.245397410	-1.868773200	-2.393639980
C 	-1.924345800	-2.330690800	-3.704301220
H 	-3.009221700	-2.405985990	-3.558699240
H 	-1.564658850	-3.313582700	-4.027670490
H 	-1.741958250	-1.614676110	-4.516032050
C 	-1.894772410	-0.540380200	-1.943196260
H 	-1.721688940	0.249542820	-2.684069060
H 	-2.978132150	-0.666178910	-1.826073840
H 	-1.478394850	-0.202728770	-0.990501200
C 	-1.464645510	-2.947592450	-1.306172490
H 	-1.067655690	-3.920885770	-1.618128520
H 	-2.536574960	-3.072717760	-1.109036570
S 	2.201987040	0.909116500	-2.744210740
O 	-0.765749240	-1.314178610	3.079251790
C 	-0.492392700	-2.609584120	3.686295920
H 	0.518389040	-2.629806110	4.104160100
H 	-0.593136990	-3.405835560	2.942074890
H 	-1.240162650	-2.718975890	4.473647730
C 	-1.542849610	3.560465410	2.277228720
C 	-1.599785060	2.479199310	1.162208880
C 	-3.052437620	2.391170670	0.612267290
C 	-0.628509650	2.854384590	0.023382550
H 	-0.638067890	2.113547250	-0.782981900
H 	-1.840736510	4.532916490	1.865347190
H 	-0.527113480	3.651204060	2.675013370
H 	-2.222860300	3.315936260	3.103010030
H 	-3.343422990	3.358081800	0.183183950
H 	-3.764898490	2.133091760	1.404803840
H 	-3.124215750	1.632618890	-0.174876410
H 	-0.917533160	3.820511380	-0.406965030
H 	0.399281440	2.946520890	0.386688740
