30

H 	1.537637237	2.081290126	-0.600709886
C 	3.414774699	1.047938986	-0.664986512
C 	2.049346847	1.124489945	-0.534645228
C 	1.177959118	-0.000710783	-0.252226654
O 	-0.051005130	0.164439425	-0.076406115
H 	3.886397328	0.070849576	-0.686911779
H 	3.947559635	2.127314554	1.805903419
H 	5.201408661	0.794453207	1.443972380
H 	3.514717338	0.340865476	2.096573291
C 	4.178093002	1.079095437	1.660651264
C 	0.705392076	-2.492316888	0.150327197
C 	1.749674461	-1.416313310	-0.165432764
H 	-0.073621167	-2.521022034	-0.617969169
H 	0.213781584	-2.294913382	1.108372184
H 	1.183280694	-3.477044359	0.199545020
H 	2.255980168	-1.633858786	-1.117300381
H 	2.544407801	-1.412464416	0.595321460
C 	3.812900282	3.491343325	-1.226382836
C 	4.666140915	4.513825491	-1.633742106
C 	6.010993363	4.240034086	-1.919220150
C 	6.500753283	2.937071800	-1.791220243
C 	5.628479810	1.938036907	-1.379898950
C 	4.271055202	2.162417921	-1.087185472
H 	2.774332279	3.720857628	-1.006301825
H 	4.284628929	5.527037857	-1.729848494
H 	6.677858040	5.036535718	-2.239761539
H 	7.537059947	2.688605991	-2.002616829
F 	6.127274933	0.664911772	-1.242782681
I 	-1.231096815	2.573033777	0.116024240
I 	-2.497588371	5.057939470	0.383463859
