13

C 	0.340145250	0.475375470	0.086498910
C 	1.449170500	-0.521419540	0.438431940
H 	1.576552360	-1.215130580	-0.398393830
C 	-0.988742040	-0.192876840	-0.153375050
H 	0.591467690	1.012294110	-0.834728990
H 	0.215388090	1.229903270	0.869333870
H 	0.949430700	-0.635064810	2.545235080
C 	1.125817510	-1.310070000	1.706090850
H 	1.960537110	-1.964974030	1.956385960
H 	0.236681670	-1.921856180	1.556692550
O 	-1.904592860	0.596703650	-0.315177140
H 	-1.137994590	-1.251412060	-0.199493060
H 	2.366744590	0.012754890	0.571155240
