13

C 	0.354895587	0.492341132	0.061950116
C 	1.415568664	-0.569272024	0.447314380
H 	1.482930106	-1.319534894	-0.354395737
C 	-0.992129785	-0.128994400	-0.248406636
H 	0.683507642	1.008500397	-0.855463744
H 	0.229478379	1.243446964	0.851612824
H 	1.064209268	-0.529503513	2.604174005
C 	1.112551434	-1.261433954	1.787580896
H 	1.889288295	-1.994652635	2.035673130
H 	0.149894439	-1.787953277	1.758990785
O 	-2.052636727	0.193362796	0.254281037
H 	-0.953489700	-0.953171265	-1.008564950
H 	2.396538379	-0.078907976	0.493910225
