33

H 	1.366846550	1.900416270	-1.142441000
C 	3.265217280	1.099575700	-0.573677060
C 	1.897273710	1.048911290	-0.723734300
C 	1.008992390	0.100561120	-0.049152640
O 	-0.061338280	0.537833840	0.501149660
H 	3.785843320	0.221192990	-0.197300200
H 	3.049930990	2.905725850	1.426160960
H 	4.546161500	1.845672940	1.722687750
H 	2.856293910	1.228279900	2.204576200
C 	3.467050620	1.928101450	1.642185520
N 	1.294929380	-1.222902180	0.054365070
C 	2.237165520	-1.932369160	-0.821118640
C 	0.463474080	-2.073424900	0.926087530
H 	2.594637220	-1.266509560	-1.606450650
H 	1.721046520	-2.782917150	-1.284893850
H 	3.090682910	-2.317037630	-0.247042360
H 	1.097367990	-2.861052980	1.347701750
H 	-0.351868660	-2.538316290	0.354794830
H 	0.036593210	-1.466092000	1.724753110
C 	3.647292110	3.384403110	-1.585900650
C 	4.489145930	4.319257880	-2.189317860
C 	5.823684270	3.978534990	-2.411973250
C 	6.343431300	2.740352670	-2.041521990
C 	5.489056120	1.817378100	-1.432240180
C 	4.129904170	2.113867900	-1.206107410
H 	2.615984620	3.659973720	-1.379019290
H 	4.126409830	5.303062780	-2.475193710
F 	6.654444740	4.896277830	-3.003517750
H 	7.390307670	2.513273890	-2.224404040
H 	5.883342360	0.847914800	-1.131154660
Zn	-0.050147010	2.310222720	1.518756610
Cl	0.177710430	4.051765280	0.236932290
Cl	-0.084853520	1.735098860	3.605058330
