33

H 	1.365254108	1.895147543	-1.100560204
C 	3.264375282	1.100382611	-0.528143221
C 	1.898569925	1.048246456	-0.678316335
C 	1.025379755	0.093046504	0.006546348
O 	-0.001532965	0.522840756	0.633866165
H 	3.782568397	0.225247710	-0.141265311
H 	3.044499846	2.947847253	1.436192801
H 	4.562770506	1.921558262	1.724391485
H 	2.893763598	1.282292352	2.247051250
C 	3.481501370	1.981163232	1.660552739
N 	1.291737471	-1.237121459	0.027808911
C 	2.201965229	-1.906317946	-0.909299259
C 	0.494615397	-2.123793974	0.889898215
H 	2.531142878	-1.206363588	-1.676736253
H 	1.670706782	-2.737606079	-1.389484238
H 	3.076167270	-2.312218371	-0.383755680
H 	1.149806042	-2.906704562	1.287025715
H 	-0.316770756	-2.594694981	0.318612019
H 	0.064579021	-1.543838726	1.706259846
C 	3.639481931	3.358362091	-1.593833110
C 	4.481101551	4.281535375	-2.211904671
C 	5.817724403	3.940160272	-2.413384238
C 	6.342896958	2.717418996	-2.005912463
C 	5.489632142	1.808082697	-1.378380979
C 	4.127717823	2.103088910	-1.175676891
H 	2.604732072	3.632510100	-1.404713410
H 	4.117935660	5.255512098	-2.528061357
F 	6.645899960	4.844057722	-3.022159945
H 	7.392880298	2.494195569	-2.173401923
H 	5.885029613	0.849762055	-1.046409098
Zn	-0.047989426	2.353802732	1.547583040
Cl	0.088884304	4.012940147	0.149343804
Cl	-0.065013265	1.926492273	3.665314370
