27

H 	  2.150829	  0.551019	  0.090913
C 	  0.000000	  0.000000	  0.000000
C 	  1.464368	 -0.285715	  0.000000
C 	  1.990477	 -1.596658	  0.000000
O 	  3.214154	 -1.911584	  0.095749
H 	 -0.545898	 -0.886652	 -0.348023
H 	 -1.459261	  1.411204	 -0.783123
H 	 -0.151258	  1.012454	 -1.924636
C 	 -0.386349	  1.210073	 -0.872917
H 	  0.158067	  2.110351	 -0.569171
H 	  1.275840	 -2.430895	 -0.104643
C 	 -0.872109	  0.451890	  4.237442
C 	 -0.136624	  1.436757	  3.566601
C 	  0.142232	  1.298636	  2.206755
C 	 -0.323892	  0.178078	  1.494719
C 	 -1.041192	 -0.816793	  2.180465
C 	 -1.324977	 -0.675073	  3.540314
H 	  0.227589	  2.307904	  4.105994
H 	  0.727350	  2.062195	  1.701161
H 	 -1.389253	 -1.696244	  1.641864
H 	 -1.896587	 -1.443159	  4.056428
H 	 -1.083640	  0.557635	  5.298931
Sn	  5.130908	 -0.541559	  0.527117
Cl	  4.511576	  0.484918	 -1.536636
Cl	  6.151454	 -2.667925	  0.482188
Cl	  7.068410	  0.788884	  0.967005
Cl	  3.870565	  0.102049	  2.449562
