27

H 	0.192423233	-2.360039645	0.622078453
C 	-0.627718107	-0.369440826	1.219319019
C 	0.389188382	-1.287657278	0.622537333
C 	1.539052800	-0.828045477	-0.052294096
O 	2.347223368	-1.618355525	-0.627643063
H 	-0.206037708	0.641645672	1.285527729
H 	-1.915488192	-0.175717666	2.964414302
H 	-0.263187138	-0.724388536	3.333401943
C 	-1.090659654	-0.809872909	2.621115837
H 	-1.429483839	-1.851465311	2.628150414
H 	1.734151425	0.254935902	-0.069818742
C 	-3.672678680	-0.267948817	-1.889581186
C 	-2.580527501	0.607229796	-1.931522809
C 	-1.614957875	0.565533615	-0.925747480
C 	-1.735754248	-0.336932449	0.148267383
C 	-2.824554085	-1.225105379	0.172149006
C 	-3.790934111	-1.182304392	-0.835456379
H 	-2.479570195	1.317925016	-2.748515441
H 	-0.762776785	1.241062272	-0.967560057
H 	-2.930923947	-1.940125128	0.983182574
H 	-4.638144931	-1.863585853	-0.798143225
H 	-4.424586363	-0.241070181	-2.674828507
Sn	4.235922897	-0.769500489	-1.830461239
Cl	4.801075025	0.116122216	0.308262912
Cl	2.540486777	0.459677594	-2.978142167
Cl	6.123162929	0.041396382	-3.049765883
Cl	4.496152882	-3.076733093	-2.261346054
