13
GO, radical, R2=Br, R1=H, Rcat=H
H	 0.30883566	-1.71322737	 0.34845077
C	-0.85933175	 0.07325638	 0.95361639
C	 0.30566658	-0.62207952	 0.35697327
C	 1.44363467	 0.02246096	-0.23005168
O	 1.61592302	 1.24992601	-0.30213575
H	-0.69195270	 1.15283717	 0.94428296
H	-1.40849480	-1.48746718	 2.39475159
C	-1.20706757	-0.41125312	 2.37345100
H	-0.38777363	-0.20492454	 3.06899219
H	-2.09949902	 0.10683830	 2.73788510
Br	-2.37011171	-0.25306916	-0.16850462
H	 2.18584514	-0.63577321	-0.63098981
H	 2.05590296	 4.51894516	-0.20247893
