24

H 	1.922940803	0.919731634	0.057141712
C 	0.000000000	0.000000000	0.000000000
C 	1.352017688	0.000000000	0.000000000
C 	2.175157732	-1.208391776	0.000000000
O 	3.384204100	-1.222757584	0.397832334
H 	-0.531650409	-0.953840103	0.014145690
C 	-2.628796747	3.371413090	0.086784724
C 	-1.241179035	3.577408754	0.083458353
C 	-0.368272902	2.493701985	0.055581071
C 	-0.868034831	1.172175867	0.029660403
C 	-2.266635868	0.981314970	0.036607210
C 	-3.139468804	2.069390792	0.063914888
H 	-0.842518654	4.588930305	0.105931062
H 	0.703550658	2.671386008	0.061382175
H 	-2.664606857	-0.031967150	0.022124086
H 	-4.214141911	1.903009531	0.069202867
H 	-3.305124686	4.222750807	0.110127372
N 	1.664009862	-2.382561906	-0.434305313
H 	2.261988877	-3.200910281	-0.418813674
H 	0.779944024	-2.428223020	-0.920471146
B 	4.160071747	0.062834732	1.109954532
F 	3.365579078	0.407360704	2.193631368
F 	4.200536226	1.053138783	0.131896571
F 	5.381327425	-0.464004241	1.433363373
