24

H 	2.470239100	0.520208460	0.922987220
C 	4.093851310	-0.090424270	-0.313012250
C 	2.872111220	-0.228776480	0.250193320
C 	1.951203070	-1.329450680	-0.031379920
O 	0.696152870	-1.253267670	0.173335280
H 	4.437557780	-0.834979630	-1.035174060
C 	6.912326870	3.069308810	0.292879900
C 	5.661187040	3.128716850	0.925562610
C 	4.729379280	2.111066920	0.739817400
C 	5.031217070	1.005333480	-0.088069320
C 	6.291729330	0.963841190	-0.723965170
C 	7.224801810	1.984307530	-0.533814030
H 	5.413606550	3.975444840	1.562156360
H 	3.760878300	2.178513590	1.228052620
H 	6.534178530	0.121196500	-1.370133610
H 	8.191751170	1.935855170	-1.029833020
H 	7.635674040	3.868380820	0.441290450
N 	2.419491470	-2.498189080	-0.527078620
H 	1.759127840	-3.246432460	-0.707812220
H 	3.409130500	-2.702043240	-0.552193890
B 	-0.094556500	0.132763780	0.640056760
F 	0.265639920	1.088803870	-0.303611890
F 	0.390916200	0.422394630	1.914087190
F 	-1.412132110	-0.244793540	0.605183600
