26

H 	2.021749740	0.952279789	0.016691876
C 	0.000000000	0.000000000	0.000000000
C 	1.493639505	-0.000000000	0.000000000
C 	2.295967455	-1.182390579	0.000000000
O 	3.538121049	-1.186353870	-0.006343689
H 	-0.336748826	-1.040308668	-0.080587950
H 	-1.671614707	0.746885196	-1.179726875
H 	-0.248350072	0.307043175	-2.145814399
C 	-0.577814225	0.768568532	-1.209747878
H 	-0.257731292	1.813819103	-1.221083299
H 	1.745480485	-2.149051476	-0.002247574
C 	-1.451268188	1.434031702	3.843908259
C 	-1.605355793	0.096850832	3.479048958
C 	-1.130949925	-0.352068957	2.246272618
C 	-0.506278072	0.525572738	1.350187669
C 	-0.350298420	1.866161766	1.732505648
C 	-0.820083000	2.316038687	2.965488596
H 	-2.094559332	-0.601517493	4.154261391
H 	-1.255905574	-1.398406555	1.975686234
H 	0.139082200	2.573456629	1.068406785
H 	-0.691195613	3.360359111	3.240607046
H 	-1.816415339	1.785965180	4.805674580
B 	5.662715861	0.764932262	-0.215315818
F 	5.128325869	1.542871275	0.719260132
F 	5.379452963	0.988842780	-1.492760439
F 	6.566523514	-0.143387322	0.115863234
