26

H 	  2.021750	  0.952280	  0.016692
C 	  0.000000	  0.000000	  0.000000
C 	  1.493640	  0.000000	 -0.000000
C 	  2.295967	 -1.182391	 -0.000000
O 	  3.538121	 -1.186354	 -0.006344
H 	 -0.336749	 -1.040309	 -0.080588
H 	 -1.671615	  0.746885	 -1.179727
H 	 -0.248350	  0.307043	 -2.145814
C 	 -0.577814	  0.768569	 -1.209748
H 	 -0.257731	  1.813819	 -1.221083
H 	  1.745480	 -2.149051	 -0.002248
C 	 -1.451268	  1.434032	  3.843908
C 	 -1.605356	  0.096851	  3.479049
C 	 -1.130950	 -0.352069	  2.246273
C 	 -0.506278	  0.525573	  1.350188
C 	 -0.350298	  1.866162	  1.732506
C 	 -0.820083	  2.316039	  2.965489
H 	 -2.094559	 -0.601517	  4.154261
H 	 -1.255906	 -1.398407	  1.975686
H 	  0.139082	  2.573457	  1.068407
H 	 -0.691196	  3.360359	  3.240607
H 	 -1.816415	  1.785965	  4.805675
B 	  5.662716	  0.764932	 -0.215316
F 	  5.128326	  1.542871	  0.719260
F 	  5.379453	  0.988843	 -1.492760
F 	  6.566524	 -0.143387	  0.115863
