26

H 	0.217389090	-1.879971090	-0.184747370
C 	-0.860776690	-0.120035020	0.689360210
C 	0.252960500	-0.800077310	-0.043905820
C 	1.407140970	-0.121882830	-0.552402090
O 	2.375819050	-0.682581500	-1.091580760
H 	-0.637029770	0.953010550	0.714171350
H 	-1.757439650	-0.076359410	2.675850710
H 	-0.009371780	-0.393923080	2.688785750
C 	-0.945900070	-0.601533570	2.162151230
H 	-1.140582990	-1.675464940	2.226794950
H 	1.412141830	0.984383800	-0.429919920
C 	-4.699496870	-0.488214560	-1.328005310
C 	-4.092917350	0.756888420	-1.173820510
C 	-2.852954670	0.858590600	-0.542901690
C 	-2.200607800	-0.276173530	-0.044388540
C 	-2.817980660	-1.523506160	-0.213386290
C 	-4.054947980	-1.628092120	-0.847031600
H 	-4.584602410	1.654403340	-1.542950210
H 	-2.393376980	1.838131700	-0.427725710
H 	-2.341215210	-2.427882130	0.155788500
H 	-4.518211630	-2.605379870	-0.963767060
H 	-5.665877190	-0.571310080	-1.819939750
B 	4.402564700	-2.551710280	-1.629700040
F 	3.542842640	-3.467849540	-2.071906890
F 	4.771181980	-2.555079040	-0.349287680
F 	4.982446330	-1.715125450	-2.485286140
