36

H 	1.796756640	1.789788290	1.357763690
C 	3.727729310	1.017910480	0.590202180
C 	2.249662200	0.940746020	0.852651870
C 	1.285796890	0.081642010	0.210693190
O 	0.102300800	0.515481600	-0.066116770
H 	4.133009030	0.040693770	0.309706500
H 	5.570183170	1.656859710	1.566057370
H 	4.412763520	0.860275470	2.662289950
C 	4.508021250	1.547711900	1.812479920
H 	4.128108930	2.527061420	2.123677660
N 	1.571089850	-1.207804590	-0.125927550
C 	0.623193280	-1.949391060	-0.974541020
C 	2.608573630	-2.009916130	0.534743590
H 	0.183548890	-1.271733280	-1.706453840
H 	-0.178523400	-2.395048950	-0.370097720
H 	1.174800860	-2.745246210	-1.485137730
H 	3.417842070	-2.262056580	-0.163028400
H 	2.157364930	-2.943462080	0.893282490
H 	3.014984910	-1.474272200	1.392864400
O 	5.069827920	1.738594960	-4.152859350
H 	5.326991310	0.805222180	-4.046487830
C 	4.523003370	2.197989100	-2.971649410
C 	4.047963800	3.517158450	-2.957912620
C 	3.488907430	4.028348710	-1.787212140
C 	3.398380300	3.242039780	-0.634531190
C 	3.874262470	1.920053740	-0.648691050
C 	4.429306820	1.399818570	-1.824703220
H 	4.110184360	4.112110210	-3.865216870
H 	3.100544570	5.043905270	-1.776864250
H 	4.787986660	0.370118060	-1.849644490
H 	2.938231190	3.652776420	0.258058330
Sn	-0.512426560	2.333155470	-1.265849620
Cl	-0.001940260	3.628873330	0.694377010
Cl	-2.647068900	1.308205310	-1.230072240
Cl	-1.007531300	4.265127610	-2.614030920
Cl	0.996912110	1.383667870	-2.877366690
