19

H 	-0.11546100	-0.00019200	-0.23076600
C 	-0.15746600	-2.13900300	-0.02406900
C 	0.42436300	-0.91442500	-0.00247800
C 	1.83092500	-0.77284300	0.33488300
O 	2.45554200	0.28424100	0.38303500
H 	0.48286300	-2.98838900	0.22175300
C 	-4.17611500	-3.27981500	-0.91669100
C 	-3.21704700	-4.23796600	-0.58700900
C 	-1.91358600	-3.84470400	-0.29892000
C 	-1.53651500	-2.48666600	-0.33415300
C 	-2.52061700	-1.53287100	-0.66975600
C 	-3.82126200	-1.92732600	-0.95634000
H 	-3.48474800	-5.29112500	-0.55375300
H 	-1.16975300	-4.59556300	-0.04212200
H 	-2.26901000	-0.47756400	-0.70685100
H 	-4.56625800	-1.17816700	-1.21284800
H 	-5.19588700	-3.58215400	-1.14225200
H 	2.36297900	-1.72333300	0.56570600
I 	1.53330100	3.02634700	-0.16426700
