17

C 	-2.11174200	-0.53973500	0.35162800
C 	-1.08631200	-0.40563100	-0.52082900
C 	0.11889800	0.34065700	-0.15655600
O 	1.08222000	0.50653100	-0.88889100
H 	-1.98587500	-0.06476500	1.32691500
H 	-1.09647300	-0.83368600	-1.52043400
C 	-5.86553800	-2.55143800	-0.05197400
C 	-5.53312300	-1.88534400	1.12774600
C 	-4.30546800	-1.23814400	1.23871700
C 	-3.38074300	-1.23783900	0.17545800
C 	-3.73499700	-1.91690700	-1.00847800
C 	-4.96014000	-2.56344900	-1.11788500
H 	-6.23009500	-1.87007100	1.96217400
H 	-4.05257400	-0.72057900	2.16138500
H 	-3.04932100	-1.93984200	-1.84988900
H 	-5.21482000	-3.08084700	-2.03981700
H 	-6.82295600	-3.05860300	-0.14356900
