64

C 	0.000000000	0.000000000	0.000000000
C 	-1.002118350	-0.904306560	-0.000000000
C 	-0.843236498	-2.356909246	-0.000000000
O 	-1.791582170	-3.150004700	-0.039580248
H 	-2.532539482	0.211097612	1.962046613
H 	1.027310049	-0.360952128	0.022440281
H 	-2.034454478	-0.585612144	-0.022909837
C 	-3.603072459	-1.846076794	3.457679436
H 	-4.327466854	-2.639390944	3.675679964
H 	-3.014016206	-1.677156511	4.367785594
H 	-2.911393443	-2.210500870	2.688281682
H 	-6.952171738	-1.685779004	0.968256707
H 	-6.126895854	-2.659008740	2.203266024
H 	-7.093911454	-1.247075400	2.677888826
H 	-3.888932892	-2.281352607	-4.935924731
H 	-3.558472743	-3.427196503	-3.622329907
H 	-5.161983185	-2.681563312	-3.753083289
N 	-3.913335467	-1.649397075	-1.582963437
C 	-4.461188990	-0.786069216	-0.672166938
N 	-4.367059838	-1.231132848	0.621329674
C 	-3.651366706	-1.324949750	-2.998240913
H 	-3.340982405	-2.403074005	-1.194407429
C 	-5.175678026	-0.731583972	1.745876723
H 	-3.954504875	-2.153302555	0.745543692
H 	-4.284766371	-0.460262685	-3.214375633
C 	-6.409720535	-1.638112433	1.918528496
C 	-4.089169042	-2.503096565	-3.881647029
H 	-2.661397922	1.191989416	-3.099255009
H 	-5.519654387	0.258300347	1.430027122
C 	-2.194536400	-0.906073346	-3.193109382
C 	-1.159764269	-1.848352501	-3.312513730
C 	0.169362322	-1.436221836	-3.439639390
C 	0.484300074	-0.072841794	-3.452447804
C 	-0.538891898	0.873040126	-3.339485041
C 	-1.867026240	0.458240774	-3.210754901
H 	-1.387141442	-2.911686722	-3.297144137
H 	0.960003586	-2.179145767	-3.523439513
H 	1.519184922	0.249090105	-3.547275884
H 	-0.302622597	1.934576419	-3.332983607
C 	-4.298671258	-0.534256663	3.027939318
C 	-5.195380422	-0.030383201	4.182481883
H 	-4.575492357	0.241212037	5.045581148
H 	-5.908149070	-0.793148409	4.513633248
H 	-5.761787085	0.860481103	3.882254011
C 	-3.225687207	0.539482402	2.739190452
H 	-3.686655603	1.477171697	2.407807541
H 	-2.640394024	0.746650490	3.643503971
S 	-5.153467372	0.705636564	-1.088169961
O 	0.453338195	-2.779903571	0.042303740
C 	0.642133481	-4.221055359	0.004009213
H 	0.223102152	-4.634213014	-0.918911238
H 	0.156197546	-4.693700429	0.863119454
H 	1.722711789	-4.368057287	0.039400518
C 	-0.388866746	4.255928008	-0.182077862
C 	-1.537604728	3.452880245	-0.239004928
C 	-1.433961658	2.066905056	-0.171517601
C 	-0.169853610	1.448187163	-0.043704838
C 	0.976456480	2.268620323	0.010637264
C 	0.870205597	3.658581451	-0.056877470
H 	-2.519329155	3.908890562	-0.345679337
H 	-2.340432334	1.473303299	-0.244782610
H 	1.956159225	1.802473547	0.101005277
H 	1.766004030	4.274452620	-0.014659271
H 	-0.476539497	5.338812662	-0.239101316
