64

C 	-1.577785850	0.328717160	2.217619310
C 	-0.629349090	-0.465382510	1.674071000
C 	0.100503730	-1.503606390	2.405035620
O 	0.948231760	-2.240707750	1.886601800
H 	-0.556898090	0.195635660	-2.098956690
H 	-1.802600880	0.203207620	3.276076560
H 	-0.330259950	-0.370934020	0.635078880
C 	-1.785584140	-2.331347080	-1.633283190
H 	-1.731215370	-3.419260390	-1.503532350
H 	-2.836065490	-2.072570720	-1.815747940
H 	-1.489952190	-1.859683190	-0.689791430
H 	1.999125700	-3.870744380	-2.498493220
H 	0.407374340	-4.262228940	-1.817365390
H 	0.624391910	-4.174086240	-3.575436710
H 	5.158170370	0.934947120	1.728728420
H 	4.410715530	-0.637473280	2.087006590
H 	5.286639160	-0.408647960	0.563845970
N 	2.626567960	-0.615885120	0.036315050
C 	2.086989470	-0.686670940	-1.221663280
N 	1.118925970	-1.656030110	-1.332835250
C 	3.350105290	0.549891680	0.577009750
H 	2.204287980	-1.225823120	0.740013560
C 	0.603762770	-2.216084840	-2.594023800
H 	0.956773460	-2.216941330	-0.496978290
H 	3.626757860	1.146035130	-0.298632480
C 	0.920779660	-3.722448100	-2.623751520
C 	4.628268130	0.082490820	1.288105270
H 	1.587304850	2.410629590	-0.269942710
H 	1.171765720	-1.717269400	-3.387259990
C 	2.393683890	1.376889090	1.441396230
C 	2.303983880	1.219591320	2.832631680
C 	1.377642480	1.959615910	3.577974300
C 	0.531559910	2.872341520	2.941594240
C 	0.611574910	3.036853240	1.553491250
C 	1.531382980	2.293586110	0.810836620
H 	2.959006440	0.518697130	3.344745220
H 	1.318569350	1.821328740	4.656187540
H 	-0.189568740	3.446933640	3.519138510
H 	-0.052599050	3.735690750	1.049792550
C 	-0.908685190	-1.849092360	-2.811362120
C 	-1.416754850	-2.492947390	-4.122138090
H 	-2.415158300	-2.108281650	-4.366008080
H 	-1.492994850	-3.583395450	-4.042464120
H 	-0.751775800	-2.254416640	-4.962580990
C 	-1.023273160	-0.312763700	-2.947605450
H 	-0.507871270	0.039782940	-3.847625570
H 	-2.077609090	-0.012094980	-3.005462330
S 	2.559657460	0.314710340	-2.503405650
O 	-0.234939460	-1.601940550	3.723964040
C 	0.482568780	-2.621189080	4.478949490
H 	1.558779130	-2.424287840	4.453773650
H 	0.286030410	-3.613363080	4.060316930
H 	0.095994020	-2.544722640	5.496732620
C 	-3.770623010	3.456795590	0.289320020
C 	-2.928126860	2.630951490	-0.470180830
C 	-2.217760490	1.601650620	0.140528620
C 	-2.332590750	1.370037540	1.528141060
C 	-3.194241130	2.199753630	2.276607980
C 	-3.903190590	3.235603840	1.665139180
H 	-2.824473790	2.793878620	-1.540842600
H 	-1.567752860	0.977259020	-0.462070020
H 	-3.293838520	2.031482950	3.347607250
H 	-4.557974550	3.869772300	2.259208210
H 	-4.321590470	4.263435900	-0.190178490
