64

C 	-1.544745467	0.558708925	1.897770047
C 	-0.601584418	-0.314216927	1.484902957
C 	-0.059756452	-1.421994987	2.268834222
O 	0.833893923	-2.175299242	1.864052533
H 	-1.643219725	-0.879525046	-0.970980762
H 	-1.969688808	0.434371391	2.892817421
H 	-0.155234602	-0.223429162	0.504934438
C 	-1.230637736	-3.564643565	-1.455583249
H 	-0.643994059	-4.435943628	-1.769118265
H 	-2.277611929	-3.882720545	-1.375043674
H 	-0.904150905	-3.270747517	-0.450481694
H 	2.319831432	-2.497958507	-3.378013627
H 	1.405716699	-3.864175463	-2.706187831
H 	0.987385733	-3.208483197	-4.302749320
H 	5.106872868	1.102225884	1.507533527
H 	4.483712245	-0.528465219	1.824094528
H 	5.136392089	-0.134456699	0.223133146
N 	2.453079116	-0.427424504	0.004250076
C 	1.730395137	-0.392967346	-1.158320054
N 	0.948052897	-1.503711793	-1.343422229
C 	3.178656979	0.721751210	0.578563555
H 	2.187257774	-1.154609080	0.672931106
C 	0.373859673	-1.925424191	-2.632018098
H 	1.031848082	-2.229883640	-0.635128150
H 	3.306900648	1.421626819	-0.251689880
C 	1.322356362	-2.942657899	-3.295383014
C 	4.560530588	0.260901217	1.066569480
H 	1.615711334	2.912663791	0.291635378
H 	0.359791570	-1.019566804	-3.246164787
C 	2.334674902	1.408679881	1.651694003
C 	2.258704755	0.917084282	2.965262833
C 	1.439557634	1.536694696	3.912717868
C 	0.684800075	2.661394625	3.561226646
C 	0.757435695	3.161609978	2.257814328
C 	1.576047536	2.539114808	1.311798897
H 	2.833476061	0.039701186	3.252409344
H 	1.386148090	1.138680612	4.924055717
H 	0.043579981	3.142145100	4.296981315
H 	0.162937943	4.025899517	1.970933220
C 	-1.109383175	-2.397364399	-2.461646365
C 	-1.658388866	-2.848426708	-3.834992596
H 	-2.733251146	-3.052894202	-3.758640456
H 	-1.172147000	-3.762073511	-4.193223669
H 	-1.518319671	-2.066321118	-4.592147771
C 	-1.958815936	-1.206470344	-1.963829537
H 	-1.874809578	-0.351490021	-2.644652046
H 	-3.016153070	-1.491820834	-1.901516217
S 	1.762091784	0.907051599	-2.247558353
O 	-0.620168016	-1.561913409	3.505030587
C 	-0.072424575	-2.632711071	4.321974953
H 	0.995940676	-2.469320291	4.495087063
H 	-0.213552630	-3.599982581	3.829972718
H 	-0.628605360	-2.588922299	5.259662038
C 	-3.044423167	3.926745992	-0.271235720
C 	-2.023811250	3.142757267	-0.829302336
C 	-1.528624983	2.037169537	-0.144692971
C 	-2.047425287	1.687530282	1.122475418
C 	-3.072387188	2.486246346	1.671653173
C 	-3.567845594	3.594528776	0.983125431
H 	-1.605000752	3.399629903	-1.799725905
H 	-0.720390094	1.466889394	-0.592975043
H 	-3.474054129	2.230941506	2.650815963
H 	-4.357692568	4.199116098	1.423750479
H 	-3.424570714	4.792030964	-0.810074396
