29

H 	2.509711560	0.759091020	-0.196809490
C 	4.290431130	-0.275029200	0.324278560
C 	2.974074090	-0.184750750	0.064529900
C 	2.054381280	-1.324709700	0.097447820
O 	0.835939430	-1.265733530	-0.163700380
H 	4.703227700	-1.253232170	0.577606350
C 	4.661708810	2.212385130	-0.059262340
C 	5.293235230	0.852948690	0.301150200
C 	6.390056180	0.487660450	-0.740973640
C 	5.945667510	0.931494560	1.711566430
H 	6.411614100	-0.022706030	1.987223420
H 	5.432367670	2.991810550	-0.059478050
H 	3.891859190	2.500861510	0.666242110
H 	4.204759990	2.190118120	-1.055389310
H 	7.171859990	1.257222460	-0.739457980
H 	5.966815490	0.426689910	-1.750303020
H 	6.858299860	-0.475508800	-0.503592680
H 	6.723206520	1.705316080	1.716559320
H 	5.200572880	1.184703970	2.474456610
O 	2.613119180	-2.503327130	0.439349150
C 	1.714744720	-3.661242150	0.469263810
H 	1.279087290	-3.820434930	-0.520816280
H 	0.918599680	-3.497089630	1.200263980
H 	2.352368800	-4.497119330	0.759913910
Sn	-0.690544470	0.494384040	-0.851135350
Cl	-2.137364130	-1.375262040	-0.834413070
Cl	0.832768670	0.705919590	-2.664509330
Cl	-2.252254660	2.179615950	-1.511146870
Cl	-0.031158590	1.433310770	1.231716160
