30

H 	2.049961827	0.928056078	0.076326187
C 	0.000000000	0.000000000	0.000000000
C 	1.493027778	0.000000000	0.000000000
C 	2.278318514	-1.200483934	0.000000000
O 	3.521343102	-1.263770435	0.235673960
H 	-0.343693287	-0.662781205	-0.807720053
H 	-1.668656801	1.378172435	-0.262191263
H 	-0.217417398	1.820862672	-1.190384126
C 	-0.575106425	1.413909474	-0.237495959
H 	-0.271542533	2.092529624	0.567763223
O 	1.603615795	-2.327524781	-0.273629898
C 	2.362179081	-3.578271968	-0.226924947
H 	2.799011801	-3.708075371	0.766917452
H 	3.155795375	-3.560729322	-0.978815750
H 	1.627927622	-4.354044148	-0.443418167
C 	0.082540657	-0.339405168	2.546726038
C 	-0.423932277	-0.884348153	3.729428680
C 	-1.551711952	-1.711762888	3.693452944
C 	-2.173891334	-1.995759109	2.472548832
C 	-1.645647964	-1.441122912	1.312245795
C 	-0.523746423	-0.607225810	1.306815372
H 	0.966791812	0.293539917	2.579877271
H 	0.063836690	-0.665004668	4.675766491
H 	-1.950203452	-2.138245880	4.610821899
H 	-3.052141934	-2.632733849	2.409695054
F 	-2.263479673	-1.725179341	0.116343351
B 	4.436469621	0.036191608	0.828522641
F 	4.411831919	0.976508774	-0.184738156
F 	5.648460946	-0.545646936	1.059672034
F 	3.745498257	0.431019671	1.965744347
