29

H 	2.824195452	0.465098980	0.034880607
C 	4.451403657	-0.545832169	0.928337697
C 	3.232872098	-0.491266924	0.360976918
C 	2.362069074	-1.648258449	0.099753689
O 	1.277134777	-1.501983483	-0.487918896
H 	4.871451765	-1.504100608	1.236365104
C 	5.350556051	0.643868725	1.121246472
C 	6.602418932	0.506287622	0.259387061
C 	6.512624158	0.665741714	-1.132698887
C 	7.644410517	0.520422926	-1.938822427
C 	8.880829430	0.203418989	-1.363101287
C 	8.977783961	0.036787103	0.022003851
C 	7.843101365	0.186461297	0.827617702
H 	4.811033852	1.564434761	0.867389819
H 	5.647793485	0.710921624	2.177015047
H 	5.551673957	0.904977065	-1.585003244
H 	7.561998635	0.653996156	-3.015381417
H 	9.762261376	0.089891325	-1.990300923
H 	9.935772167	-0.205961219	0.477077137
H 	7.924583026	0.062028701	1.906467842
C 	1.775680223	-4.145061620	0.196899346
C 	2.785038263	-3.046557632	0.547878536
H 	1.614224623	-4.199917817	-0.884407939
H 	0.805060376	-3.952284227	0.664985715
H 	2.142989662	-5.117021233	0.544115483
H 	3.764422789	-3.258640394	0.094616273
H 	2.962727141	-3.010122167	1.632593634
I 	0.357235502	0.814174051	-1.579501376
I 	-0.628215286	3.144093462	-2.760883570
