22

C 	0.724791871	-0.291140785	1.082055721
C 	1.204621215	-0.220062217	-0.205508858
C 	-0.812821658	-0.350532860	-1.525133977
H 	0.690440908	-1.228056527	1.635021186
C 	0.206254629	0.882498882	1.760251616
H 	-1.078531622	-1.359733037	-1.233341499
H 	1.315034373	0.776675340	-0.634579982
H 	-0.340888692	-0.205810772	-2.490391412
H 	-1.365509164	0.473057324	-1.087571291
O 	-0.257484909	0.890998844	2.901918994
H 	0.254382343	1.827971664	1.163317298
C 	3.317290134	-3.282594319	-2.346803997
C 	3.393216381	-1.945397999	-2.751718740
C 	2.692071896	-0.962990828	-2.050591898
C 	1.911233292	-1.291585732	-0.924646036
C 	1.842320694	-2.643232683	-0.530353991
C 	2.536922820	-3.625745738	-1.234697115
H 	3.995491418	-1.669035349	-3.614448283
H 	2.750419713	0.076245900	-2.370095985
H 	1.235310252	-2.927440328	0.325358130
H 	2.470260854	-4.664305823	-0.917762386
H 	3.856695522	-4.052177019	-2.894304466
