26

H 	2.425706260	0.530037420	0.614018310
C 	4.293275870	-0.250523170	-0.058792530
C 	2.981299210	-0.340896430	0.269918970
C 	2.182164750	-1.568198140	0.215214910
O 	0.983256590	-1.559392670	0.556477920
H 	4.810193470	-1.152531420	-0.389759150
C 	4.643123060	2.219574750	0.353087100
C 	5.484510850	3.328266050	0.387346980
C 	6.830182090	3.162686300	0.048407210
C 	7.355108190	1.927860670	-0.326257700
C 	6.498301840	0.827147970	-0.356391530
C 	5.131160360	0.943437520	-0.016502510
H 	3.596429480	2.348079200	0.616060350
H 	5.116001150	4.310672820	0.670491340
F 	7.659328420	4.250553290	0.084811500
H 	8.406732310	1.840530110	-0.585451500
H 	6.892050950	-0.145531290	-0.645953200
C 	1.831984370	-4.066507620	-0.276195860
C 	2.805690180	-2.881036090	-0.265728630
H 	0.979514730	-3.870341270	-0.934674120
H 	1.436404780	-4.260083100	0.726311720
H 	2.344399460	-4.968874700	-0.629070560
H 	3.217929260	-2.709329560	-1.271226980
H 	3.670983380	-3.097212040	0.378691620
I 	-0.388940380	0.596537230	1.477240150
I 	-1.866802740	2.761667940	2.439561480
