34

H 	1.996403712	0.919440170	0.302069674
C 	0.000000000	0.000000000	0.000000000
C 	1.501779855	-0.000000000	0.000000000
C 	2.353532961	-1.163568370	-0.000000000
O 	3.439081366	-1.212182248	0.693717174
H 	-0.388636080	-0.963790410	-0.341619831
H 	-1.678751509	1.160694666	-0.765601824
H 	-0.361164388	0.931627175	-1.940911997
C 	-0.590550072	1.116642250	-0.885070507
H 	-0.174638477	2.095607539	-0.625494340
N 	2.041205756	-2.283890038	-0.710134056
C 	2.842576923	-3.501651109	-0.515833665
C 	1.190209214	-2.267444708	-1.905691344
H 	3.181370180	-3.555836172	0.518725626
H 	3.723031985	-3.501229982	-1.173115142
H 	2.216384757	-4.366708201	-0.756784622
H 	0.298565229	-2.890402123	-1.762397496
H 	1.761603757	-2.668728180	-2.752561127
H 	0.892513841	-1.248391085	-2.149540601
C 	-0.606967622	-1.060157984	2.224347229
C 	-0.888159227	-0.997118842	3.590679817
C 	-0.934494499	0.235874024	4.248616224
C 	-0.693112134	1.384827207	3.500898051
C 	-0.409277572	1.352622647	2.141478842
C 	-0.375692962	0.112273349	1.487778123
H 	-0.559247724	-2.025647273	1.725209484
H 	-1.066675431	-1.911369124	4.151406986
H 	-1.141707029	0.313847520	5.311982331
F 	-0.733756507	2.600775499	4.130230473
H 	-0.210557028	2.284757778	1.621995867
B 	3.825588306	-0.167967943	1.883378820
F 	4.040789569	1.065532107	1.266077672
F 	4.958977134	-0.722747482	2.429923219
F 	2.727905917	-0.151077513	2.740896677
