34

H 	1.482983340	2.026683730	0.433695130
C 	3.495672410	1.111105720	0.250549350
C 	1.991657080	1.081807850	0.259010680
C 	1.135319020	0.024624750	-0.222050740
O 	0.005300050	0.273798640	-0.794963830
H 	3.893447170	0.139971420	-0.063831760
H 	5.170556770	1.604918500	1.558649300
H 	3.894133470	0.657214490	2.355494980
C 	4.086629920	1.461041350	1.635851190
H 	3.641170710	2.375225600	2.041512700
N 	1.476212820	-1.292611670	-0.112929320
C 	0.636661950	-2.310985060	-0.765527350
C 	2.426997480	-1.807208020	0.881931570
H 	0.193112630	-1.897488710	-1.671181570
H 	-0.171050020	-2.637099670	-0.095255980
H 	1.268243690	-3.172309340	-1.008777940
H 	3.298142760	-2.262771200	0.393874140
H 	1.925889640	-2.576019300	1.484678180
H 	2.753417810	-1.012464020	1.550484700
C 	3.889252620	1.677868570	-2.188530690
C 	4.179688270	2.566797260	-3.225244840
C 	4.452786540	3.912386860	-2.952102740
C 	4.422638650	4.328661540	-1.623994730
C 	4.132852360	3.465442820	-0.571441270
C 	3.872197510	2.115503910	-0.854286110
H 	3.658472350	0.639243650	-2.415952140
H 	4.183392900	2.216244340	-4.254707680
H 	4.674498220	4.625100000	-3.741577340
F 	4.691150010	5.645199120	-1.335317170
H 	4.119175820	3.857167040	0.440546000
B 	-0.440192730	1.727537510	-1.378319190
F 	-0.614388150	2.556051450	-0.266082510
F 	-1.605139260	1.454554190	-2.059846440
F 	0.613842510	2.140229830	-2.197186840
