31

H 	2.012982449	0.945093748	0.137831873
C 	0.000000000	0.000000000	0.000000000
C 	1.495796914	0.000000000	0.000000000
C 	2.327217162	-1.167202555	0.000000000
O 	3.554848141	-1.183964607	0.281704146
H 	-0.367458230	-0.990995776	-0.275390021
H 	-1.681086990	1.092681826	-0.849617715
H 	-0.357810198	0.779554236	-1.998329626
C 	-0.592229021	1.049339191	-0.962944174
H 	-0.185726073	2.049410280	-0.778600075
O 	1.698728783	-2.312219046	-0.343955669
C 	2.499107111	-3.532116456	-0.272804559
H 	2.882599114	-3.663944064	0.742687830
H 	3.335681746	-3.474093688	-0.974745602
H 	1.810259140	-4.332657232	-0.542871898
C 	-0.332940713	1.528073741	2.051399307
C 	-0.565541969	1.715604762	3.413970690
C 	-0.808926374	0.613259939	4.241893640
C 	-0.824850851	-0.676447575	3.702603298
C 	-0.585669066	-0.832487246	2.342580771
C 	-0.346877314	0.244429541	1.477525151
H 	-0.128778675	2.389561671	1.421575400
H 	-0.547011711	2.718607378	3.832135824
H 	-0.980672891	0.753067255	5.306133676
H 	-1.007859022	-1.553768582	4.316791290
F 	-0.581831899	-2.106948536	1.830690641
Sn	4.845224450	0.222920634	1.694581399
Cl	3.000330702	-0.090528273	3.168374511
Cl	4.573710062	1.824178866	-0.048170658
Cl	6.180422035	1.573193845	3.150027672
Cl	6.363109075	-1.560611223	1.379739543
