33

H 	1.716992840	2.287683010	-0.462473450
C 	3.512637180	1.135572480	-0.497484810
C 	2.159736710	1.301343570	-0.404037630
C 	1.222157420	0.230516430	-0.146839780
O 	-0.011861510	0.372789360	0.038592320
H 	3.910219300	0.121835620	-0.505110960
H 	4.972631480	0.741120590	2.012238810
H 	3.245105740	0.048145250	2.055876380
H 	3.508438880	1.879921030	2.246560760
C 	3.902009730	0.906267070	1.980804000
O 	1.758348670	-1.010281740	-0.101632020
C 	0.830035400	-2.108625000	0.174590410
H 	0.079812920	-2.172164420	-0.618527490
H 	0.334256530	-1.948783100	1.135967640
H 	1.456867900	-3.001236000	0.195674580
C 	4.559239120	1.990897470	-2.539731890
C 	4.463696720	2.212788180	-0.995299400
C 	5.878092030	2.042402680	-0.391851520
C 	3.948540290	3.640641980	-0.714637380
H 	3.783263820	3.797873560	0.357501190
H 	5.249155450	2.726696360	-2.971424370
H 	3.578183300	2.109334060	-3.011993240
H 	4.938274540	0.988486760	-2.774143630
H 	6.586496610	2.694486790	-0.916492470
H 	6.232186890	1.008420460	-0.491196740
H 	5.893795300	2.312868190	0.668457170
H 	4.688269150	4.373930050	-1.056284500
H 	3.011124430	3.848560440	-1.241783180
Sn	-1.404850820	2.256885130	0.370173160
Cl	0.190945020	2.781340390	2.067788280
Cl	-2.949382000	0.511165450	0.779555920
Cl	-2.869020140	4.114030380	0.745946150
Cl	-0.820858420	2.770961800	-1.881833070
