32

H 	1.815879674	-1.118410621	-0.113189952
C 	0.000000000	0.000000000	0.000000000
C 	0.737068560	-1.169685239	-0.000000000
C 	0.177175370	-2.490895926	-0.000000000
O 	0.906964272	-3.509825368	-0.185253699
H 	-1.074745229	-0.103305995	0.142340788
H 	0.576617272	-0.310740478	-2.637907005
H 	-0.570403030	1.158108750	-2.534024059
H 	-1.253337697	-0.574249448	-2.464500277
C 	-0.400654716	0.094747179	-2.401925865
C 	-1.728591869	-4.191908526	0.246136885
C 	-1.313167801	-2.716448396	0.222395924
H 	-1.212697124	-4.731776236	1.046238170
H 	-1.481168983	-4.686752758	-0.698045427
H 	-2.808546863	-4.273622473	0.410307456
H 	-1.601088886	-2.217414981	1.158533650
H 	-1.851887493	-2.182315970	-0.575965909
O 	-1.630955730	2.400339622	-0.260875270
H 	-1.840174192	1.503447722	-0.574243539
C 	-0.297577226	2.483044808	0.071384902
C 	0.202584086	3.770445124	0.299760457
C 	1.549010409	3.948820269	0.605768210
C 	2.410979639	2.842757539	0.684227763
C 	1.911879748	1.565285624	0.467591468
C 	0.547062696	1.343682229	0.168223028
H 	-0.477780328	4.614001342	0.218246131
H 	1.931257478	4.952195564	0.778268610
H 	2.579727637	0.713296271	0.550381415
H 	3.462137975	2.982359192	0.921662024
Zn	2.796344133	-3.589862415	-1.012578031
Cl	4.000803866	-5.035776571	0.018330821
Cl	2.811159785	-2.141243817	-2.639663266
