31

H 	2.009530888	0.956000548	0.084489820
C 	0.000000000	0.000000000	0.000000000
C 	1.496313508	0.000000000	0.000000000
C 	2.326391350	-1.165414784	-0.000000000
O 	3.583632833	-1.067814847	0.162668935
H 	-0.349983769	-0.689421824	-0.785187902
H 	-1.662925301	1.380068464	-0.303512553
H 	-0.215528204	1.775369610	-1.261217780
C 	-0.568479045	1.406449004	-0.290805253
H 	-0.252615842	2.112965918	0.484989588
C 	2.755337038	-3.681501283	-0.239495241
C 	1.728162892	-2.545581264	-0.204897289
H 	3.313402173	-3.734975824	0.700758990
H 	3.481574193	-3.534919961	-1.045549324
H 	2.247932309	-4.639262559	-0.396997708
H 	0.992660126	-2.704831037	0.597041765
H 	1.136662350	-2.522552325	-1.133280765
C 	0.037816346	-0.143193109	2.551044292
C 	-0.449537782	-0.633978390	3.764851203
C 	-1.502356680	-1.544072387	3.739756302
C 	-2.080920944	-1.981998943	2.550452401
C 	-1.577132683	-1.485308392	1.344970527
C 	-0.523473238	-0.559599365	1.330990107
H 	0.870583062	0.556187781	2.560274654
H 	-0.021706002	-0.322550103	4.713781523
F 	-1.986115922	-2.030826080	4.923808214
H 	-2.902007664	-2.693044648	2.576213509
H 	-2.013696834	-1.821936392	0.406412899
Zn	4.705650282	0.534708465	0.858463515
Cl	3.512789766	1.509832757	2.395266774
Cl	6.565762253	0.596001643	-0.202551768
