18
GO, R2=Ph, R1=H
H	 0.09039378	-1.80988465	-0.51555853
C	-0.90781845	-0.00771283	-0.04943451
C	 0.18266548	-0.75219647	-0.26512258
C	 1.55928918	-0.22013974	-0.18291419
O	 2.58397592	-0.85270545	-0.38366642
H	-0.82431619	 1.04491294	 0.20242594
C	-4.89175452	-1.70930219	-0.32578719
C	-4.11637706	-1.92449989	 0.82040558
C	-2.83108777	-1.37553662	 0.90956191
C	-2.32117593	-0.61137564	-0.14747452
C	-3.09655338	-0.39617794	-1.29366728
C	-4.38184267	-0.94514121	-1.38282362
H	-4.50657524	-2.50925630	 1.62927811
H	-2.23774822	-1.54021165	 1.78665926
H	-2.70635521	 0.18857847	-2.10253982
H	-4.97518223	-0.78046618	-2.25992097
H	-5.87529225	-2.12938356	-0.39401200
H	 1.61846764	 0.81547669	 0.07956726
